5323650
 OpenBabel05082101102D

 19 18  0  0  0  0  0  0  0  0999 V2000
    2.8660    0.4400    0.0000 O   0  0  0  0  0  0  0  0  0  0  0  0
    3.7320   -1.0600    0.0000 O   0  0  0  0  0  0  0  0  0  0  0  0
    6.3301    0.4400    0.0000 C   0  0  0  0  0  0  0  0  0  0  0  0
    5.4641   -0.0600    0.0000 C   0  0  0  0  0  0  0  0  0  0  0  0
    7.1962   -0.0600    0.0000 C   0  0  0  0  0  0  0  0  0  0  0  0
    4.5981    0.4400    0.0000 C   0  0  0  0  0  0  0  0  0  0  0  0
    8.0622    0.4400    0.0000 C   0  0  0  0  0  0  0  0  0  0  0  0
    3.7320   -0.0600    0.0000 C   0  0  0  0  0  0  0  0  0  0  0  0
    2.0000   -0.0600    0.0000 C   0  0  0  0  0  0  0  0  0  0  0  0
    6.3301    1.0600    0.0000 H   0  0  0  0  0  0  0  0  0  0  0  0
    5.4641   -0.6800    0.0000 H   0  0  0  0  0  0  0  0  0  0  0  0
    7.1962   -0.6800    0.0000 H   0  0  0  0  0  0  0  0  0  0  0  0
    4.5981    1.0600    0.0000 H   0  0  0  0  0  0  0  0  0  0  0  0
    8.3722   -0.0969    0.0000 H   0  0  0  0  0  0  0  0  0  0  0  0
    8.5991    0.7500    0.0000 H   0  0  0  0  0  0  0  0  0  0  0  0
    7.7522    0.9769    0.0000 H   0  0  0  0  0  0  0  0  0  0  0  0
    1.6900    0.4769    0.0000 H   0  0  0  0  0  0  0  0  0  0  0  0
    1.4631   -0.3700    0.0000 H   0  0  0  0  0  0  0  0  0  0  0  0
    2.3100   -0.5969    0.0000 H   0  0  0  0  0  0  0  0  0  0  0  0
  1  8  1  0  0  0  0
  1  9  1  0  0  0  0
  2  8  2  0  0  0  0
  3  4  1  0  0  0  0
  3  5  2  0  0  0  0
  3 10  1  0  0  0  0
  4  6  2  0  0  0  0
  4 11  1  0  0  0  0
  5  7  1  0  0  0  0
  5 12  1  0  0  0  0
  6  8  1  0  0  0  0
  6 13  1  0  0  0  0
  7 14  1  0  0  0  0
  7 15  1  0  0  0  0
  7 16  1  0  0  0  0
  9 17  1  0  0  0  0
  9 18  1  0  0  0  0
  9 19  1  0  0  0  0
M  END
>  <PUBCHEM_COMPOUND_CID>
5323650

>  <PUBCHEM_COMPOUND_CANONICALIZED>
1

>  <PUBCHEM_CACTVS_COMPLEXITY>
134

>  <PUBCHEM_CACTVS_HBOND_ACCEPTOR>
2

>  <PUBCHEM_CACTVS_HBOND_DONOR>
0

>  <PUBCHEM_CACTVS_ROTATABLE_BOND>
3

>  <PUBCHEM_CACTVS_SUBSKEYS>
AAADccBgMAAAAAAAAAAAAAAAAAAAAAAAAAAAAAAAAAAAAAAAAAAAGgAAAAAACACAgAICCAAABACIACDSCAAAAAAAAAAICAAAAEAIBAAAIQAAEAAAAAAAoYAAAAAAAAAAAAAAAAAAAAAAAAAAAAAAAAAAAA==

>  <PUBCHEM_IUPAC_OPENEYE_NAME>
methyl (2E,4E)-hexa-2,4-dienoate

>  <PUBCHEM_IUPAC_CAS_NAME>
(2E,4E)-hexa-2,4-dienoic acid methyl ester

>  <PUBCHEM_IUPAC_NAME_MARKUP>
methyl (2<I>E</I>,4<I>E</I>)-hexa-2,4-dienoate

>  <PUBCHEM_IUPAC_NAME>
methyl (2E,4E)-hexa-2,4-dienoate

>  <PUBCHEM_IUPAC_SYSTEMATIC_NAME>
methyl (2E,4E)-hexa-2,4-dienoate

>  <PUBCHEM_IUPAC_TRADITIONAL_NAME>
(2E,4E)-hexa-2,4-dienoic acid methyl ester

>  <PUBCHEM_IUPAC_INCHI>
InChI=1S/C7H10O2/c1-3-4-5-6-7(8)9-2/h3-6H,1-2H3/b4-3+,6-5+

>  <PUBCHEM_IUPAC_INCHIKEY>
KWKVAGQCDSHWFK-VNKDHWASSA-N

>  <PUBCHEM_XLOGP3_AA>
1.6

>  <PUBCHEM_EXACT_MASS>
126.06808

>  <PUBCHEM_MOLECULAR_FORMULA>
C7H10O2

>  <PUBCHEM_MOLECULAR_WEIGHT>
126.15

>  <PUBCHEM_OPENEYE_CAN_SMILES>
CC=CC=CC(=O)OC

>  <PUBCHEM_OPENEYE_ISO_SMILES>
C/C=C/C=C/C(=O)OC

>  <PUBCHEM_CACTVS_TPSA>
26.3

>  <PUBCHEM_MONOISOTOPIC_WEIGHT>
126.06808

>  <PUBCHEM_TOTAL_CHARGE>
0

>  <PUBCHEM_HEAVY_ATOM_COUNT>
9

>  <PUBCHEM_ATOM_DEF_STEREO_COUNT>
0

>  <PUBCHEM_ATOM_UDEF_STEREO_COUNT>
0

>  <PUBCHEM_BOND_DEF_STEREO_COUNT>
2

>  <PUBCHEM_BOND_UDEF_STEREO_COUNT>
0

>  <PUBCHEM_ISOTOPIC_ATOM_COUNT>
0

>  <PUBCHEM_COMPONENT_COUNT>
1

>  <PUBCHEM_CACTVS_TAUTO_COUNT>
-1

>  <PUBCHEM_COORDINATE_TYPE>
1
5
255

$$$$
