14775
 OpenBabel05082101102D

  2  1  0  0  0  0  0  0  0  0999 V2000
    3.0000    0.0000    0.0000 O   0  0  0  0  0  0  0  0  0  0  0  0
    2.0000    0.0000    0.0000 Be  0  0  0  0  0  0  0  0  0  0  0  0
  1  2  2  0  0  0  0
M  END
>  <PUBCHEM_COMPOUND_CID>
14775

>  <PUBCHEM_COMPOUND_CANONICALIZED>
1

>  <PUBCHEM_CACTVS_COMPLEXITY>
2

>  <PUBCHEM_CACTVS_HBOND_ACCEPTOR>
1

>  <PUBCHEM_CACTVS_HBOND_DONOR>
0

>  <PUBCHEM_CACTVS_ROTATABLE_BOND>
0

>  <PUBCHEM_CACTVS_SUBSKEYS>
AAADcQAAIAAAAEAAAAAAAAAAAAAAAAAAAAAAAAAAAAAAAAAAAAAAAAAAAAAAAAAAAAAAAAAAAAAAAAAAAAAAAAAAAAAAAAAAAAAAAAAAAAAAAAAAAAAAAAAAAAAAAAAAAAAAAAAAAAAAAAAAAAAAAAAAAA==

>  <PUBCHEM_IUPAC_OPENEYE_NAME>
oxoberyllium

>  <PUBCHEM_IUPAC_CAS_NAME>
oxoberyllium

>  <PUBCHEM_IUPAC_NAME_MARKUP>
oxoberyllium

>  <PUBCHEM_IUPAC_NAME>
oxoberyllium

>  <PUBCHEM_IUPAC_SYSTEMATIC_NAME>
oxidanylideneberyllium

>  <PUBCHEM_IUPAC_TRADITIONAL_NAME>
ketoberyllium

>  <PUBCHEM_IUPAC_INCHI>
InChI=1S/Be.O

>  <PUBCHEM_IUPAC_INCHIKEY>
LTPBRCUWZOMYOC-UHFFFAOYSA-N

>  <PUBCHEM_EXACT_MASS>
25.007098

>  <PUBCHEM_MOLECULAR_FORMULA>
BeO

>  <PUBCHEM_MOLECULAR_WEIGHT>
25.012

>  <PUBCHEM_OPENEYE_CAN_SMILES>
[Be]=O

>  <PUBCHEM_OPENEYE_ISO_SMILES>
[Be]=O

>  <PUBCHEM_CACTVS_TPSA>
17.1

>  <PUBCHEM_MONOISOTOPIC_WEIGHT>
25.007098

>  <PUBCHEM_TOTAL_CHARGE>
0

>  <PUBCHEM_HEAVY_ATOM_COUNT>
2

>  <PUBCHEM_ATOM_DEF_STEREO_COUNT>
0

>  <PUBCHEM_ATOM_UDEF_STEREO_COUNT>
0

>  <PUBCHEM_BOND_DEF_STEREO_COUNT>
0

>  <PUBCHEM_BOND_UDEF_STEREO_COUNT>
0

>  <PUBCHEM_ISOTOPIC_ATOM_COUNT>
0

>  <PUBCHEM_COMPONENT_COUNT>
1

>  <PUBCHEM_CACTVS_TAUTO_COUNT>
-1

>  <PUBCHEM_COORDINATE_TYPE>
1
5
255

$$$$
