92030006
 OpenBabel05082101102D

 51 53  0  0  1  0  0  0  0  0999 V2000
    3.3926    0.1785    0.0000 O   0  0  0  0  0  0  0  0  0  0  0  0
    5.2049   -0.0167    0.0000 C   0  0  3  0  0  0  0  0  0  0  0  0
    6.0709    0.4833    0.0000 C   0  0  3  0  0  0  0  0  0  0  0  0
    5.4141   -0.9886    0.0000 C   0  0  0  0  0  0  0  0  0  0  0  0
    6.8079   -0.1838    0.0000 C   0  0  0  0  0  0  0  0  0  0  0  0
    6.4028   -1.0916    0.0000 C   0  0  3  0  0  0  0  0  0  0  0  0
    4.3388    0.4833    0.0000 C   0  0  3  0  0  0  0  0  0  0  0  0
    4.3388    1.4833    0.0000 C   0  0  3  0  0  0  0  0  0  0  0  0
    6.0709    1.4833    0.0000 C   0  0  0  0  0  0  0  0  0  0  0  0
    5.2049    1.9833    0.0000 C   0  0  0  0  0  0  0  0  0  0  0  0
    3.3926    1.7880    0.0000 C   0  0  0  0  0  0  0  0  0  0  0  0
    2.8090    0.9833    0.0000 C   0  0  0  0  0  0  0  0  0  0  0  0
    5.3113   -1.9833    0.0000 C   0  0  0  0  0  0  0  0  0  0  0  0
    4.4363   -1.1982    0.0000 C   0  0  0  0  0  0  0  0  0  0  0  0
    7.7208   -0.5921    0.0000 C   0  0  0  0  0  0  0  0  0  0  0  0
    7.4783    0.5582    0.0000 C   0  0  0  0  0  0  0  0  0  0  0  0
    6.9028   -1.9576    0.0000 C   0  0  0  0  0  0  0  0  0  0  0  0
    2.0000    1.5710    0.0000 C   0  0  0  0  0  0  0  0  0  0  0  0
    2.0000    0.3955    0.0000 C   0  0  0  0  0  0  0  0  0  0  0  0
    4.7038   -0.3818    0.0000 H   0  0  0  0  0  0  0  0  0  0  0  0
    6.6376    0.7347    0.0000 H   0  0  0  0  0  0  0  0  0  0  0  0
    6.0653   -1.6117    0.0000 H   0  0  0  0  0  0  0  0  0  0  0  0
    4.2732   -0.1333    0.0000 H   0  0  0  0  0  0  0  0  0  0  0  0
    4.2732    2.0998    0.0000 H   0  0  0  0  0  0  0  0  0  0  0  0
    6.6815    1.3756    0.0000 H   0  0  0  0  0  0  0  0  0  0  0  0
    6.2829    2.0659    0.0000 H   0  0  0  0  0  0  0  0  0  0  0  0
    5.6034    2.4582    0.0000 H   0  0  0  0  0  0  0  0  0  0  0  0
    4.8063    2.4582    0.0000 H   0  0  0  0  0  0  0  0  0  0  0  0
    3.6437    2.3549    0.0000 H   0  0  0  0  0  0  0  0  0  0  0  0
    2.8552    2.0972    0.0000 H   0  0  0  0  0  0  0  0  0  0  0  0
    4.6945   -1.9195    0.0000 H   0  0  0  0  0  0  0  0  0  0  0  0
    5.2475   -2.6000    0.0000 H   0  0  0  0  0  0  0  0  0  0  0  0
    5.9280   -2.0470    0.0000 H   0  0  0  0  0  0  0  0  0  0  0  0
    4.3063   -0.5919    0.0000 H   0  0  0  0  0  0  0  0  0  0  0  0
    3.8301   -1.3281    0.0000 H   0  0  0  0  0  0  0  0  0  0  0  0
    4.5662   -1.8044    0.0000 H   0  0  0  0  0  0  0  0  0  0  0  0
    7.4676   -1.1581    0.0000 H   0  0  0  0  0  0  0  0  0  0  0  0
    8.2867   -0.8453    0.0000 H   0  0  0  0  0  0  0  0  0  0  0  0
    7.9739   -0.0262    0.0000 H   0  0  0  0  0  0  0  0  0  0  0  0
    7.9384    0.1425    0.0000 H   0  0  0  0  0  0  0  0  0  0  0  0
    7.8940    1.0182    0.0000 H   0  0  0  0  0  0  0  0  0  0  0  0
    7.0183    0.9738    0.0000 H   0  0  0  0  0  0  0  0  0  0  0  0
    6.3659   -2.2676    0.0000 H   0  0  0  0  0  0  0  0  0  0  0  0
    7.2128   -2.4946    0.0000 H   0  0  0  0  0  0  0  0  0  0  0  0
    7.4397   -1.6476    0.0000 H   0  0  0  0  0  0  0  0  0  0  0  0
    2.3644    2.0726    0.0000 H   0  0  0  0  0  0  0  0  0  0  0  0
    1.4984    1.9355    0.0000 H   0  0  0  0  0  0  0  0  0  0  0  0
    1.6356    1.0694    0.0000 H   0  0  0  0  0  0  0  0  0  0  0  0
    1.6356    0.8971    0.0000 H   0  0  0  0  0  0  0  0  0  0  0  0
    1.4984    0.0310    0.0000 H   0  0  0  0  0  0  0  0  0  0  0  0
    2.3644   -0.1061    0.0000 H   0  0  0  0  0  0  0  0  0  0  0  0
  1  7  1  0  0  0  0
  1 12  1  0  0  0  0
  2  3  1  0  0  0  0
  2  4  1  0  0  0  0
  2  7  1  0  0  0  0
  2 20  1  0  0  0  0
  3  5  1  0  0  0  0
  3  9  1  0  0  0  0
  3 21  1  0  0  0  0
  4  6  1  0  0  0  0
  4 13  1  0  0  0  0
  4 14  1  0  0  0  0
  5  6  1  0  0  0  0
  5 15  1  0  0  0  0
  5 16  1  0  0  0  0
  6 17  1  0  0  0  0
  6 22  1  0  0  0  0
  7  8  1  0  0  0  0
  7 23  1  0  0  0  0
  8 10  1  0  0  0  0
  8 11  1  0  0  0  0
  8 24  1  0  0  0  0
  9 10  1  0  0  0  0
  9 25  1  0  0  0  0
  9 26  1  0  0  0  0
 10 27  1  0  0  0  0
 10 28  1  0  0  0  0
 11 12  1  0  0  0  0
 11 29  1  0  0  0  0
 11 30  1  0  0  0  0
 12 18  1  0  0  0  0
 12 19  1  0  0  0  0
 13 31  1  0  0  0  0
 13 32  1  0  0  0  0
 13 33  1  0  0  0  0
 14 34  1  0  0  0  0
 14 35  1  0  0  0  0
 14 36  1  0  0  0  0
 15 37  1  0  0  0  0
 15 38  1  0  0  0  0
 15 39  1  0  0  0  0
 16 40  1  0  0  0  0
 16 41  1  0  0  0  0
 16 42  1  0  0  0  0
 17 43  1  0  0  0  0
 17 44  1  0  0  0  0
 17 45  1  0  0  0  0
 18 46  1  0  0  0  0
 18 47  1  0  0  0  0
 18 48  1  0  0  0  0
 19 49  1  0  0  0  0
 19 50  1  0  0  0  0
 19 51  1  0  0  0  0
M  END
>  <PUBCHEM_COMPOUND_CID>
92030006

>  <PUBCHEM_COMPOUND_CANONICALIZED>
1

>  <PUBCHEM_CACTVS_COMPLEXITY>
379

>  <PUBCHEM_CACTVS_HBOND_ACCEPTOR>
1

>  <PUBCHEM_CACTVS_HBOND_DONOR>
0

>  <PUBCHEM_CACTVS_ROTATABLE_BOND>
0

>  <PUBCHEM_CACTVS_SUBSKEYS>
AAADcfB4IAAAAAAAAAAAAAAAAAAAAaIAAAAwAAAAAAAAAGgAAAAAGgAAAAAAD1SggAICAAAABAAAAAAAAAAAAAAAAAAAAAAAAAAAAAIAAAACAAAEAAAAAAGAwPAPgAAAAAAAAACAAAYAADAAAQAACAAAAA==

>  <PUBCHEM_IUPAC_OPENEYE_NAME>
2,2,6,6,7,8,8-heptamethyl-3,3a,4,5,5a,7,8a,8b-octahydrocyclopenta[g]benzofuran

>  <PUBCHEM_IUPAC_CAS_NAME>
2,2,6,6,7,8,8-heptamethyl-3,3a,4,5,5a,7,8a,8b-octahydrocyclopenta[g]benzofuran

>  <PUBCHEM_IUPAC_NAME_MARKUP>
2,2,6,6,7,8,8-heptamethyl-3,3<I>a</I>,4,5,5<I>a</I>,7,8<I>a</I>,8<I>b</I>-octahydrocyclopenta[g][1]benzofuran

>  <PUBCHEM_IUPAC_NAME>
2,2,6,6,7,8,8-heptamethyl-3,3a,4,5,5a,7,8a,8b-octahydrocyclopenta[g][1]benzofuran

>  <PUBCHEM_IUPAC_SYSTEMATIC_NAME>
2,2,6,6,7,8,8-heptamethyl-3,3a,4,5,5a,7,8a,8b-octahydrocyclopenta[g][1]benzofuran

>  <PUBCHEM_IUPAC_TRADITIONAL_NAME>
2,2,6,6,7,8,8-heptamethyl-3,3a,4,5,5a,7,8a,8b-octahydrocyclopenta[g]benzofuran

>  <PUBCHEM_IUPAC_INCHI>
InChI=1S/C18H32O/c1-11-17(4,5)13-9-8-12-10-16(2,3)19-15(12)14(13)18(11,6)7/h11-15H,8-10H2,1-7H3

>  <PUBCHEM_IUPAC_INCHIKEY>
HUYXPANWJVOYCI-UHFFFAOYSA-N

>  <PUBCHEM_XLOGP3_AA>
5.3

>  <PUBCHEM_EXACT_MASS>
264.245316

>  <PUBCHEM_MOLECULAR_FORMULA>
C18H32O

>  <PUBCHEM_MOLECULAR_WEIGHT>
264.4

>  <PUBCHEM_OPENEYE_CAN_SMILES>
CC1C(C2CCC3CC(OC3C2C1(C)C)(C)C)(C)C

>  <PUBCHEM_OPENEYE_ISO_SMILES>
CC1C(C2CCC3CC(OC3C2C1(C)C)(C)C)(C)C

>  <PUBCHEM_CACTVS_TPSA>
9.2

>  <PUBCHEM_MONOISOTOPIC_WEIGHT>
264.245316

>  <PUBCHEM_TOTAL_CHARGE>
0

>  <PUBCHEM_HEAVY_ATOM_COUNT>
19

>  <PUBCHEM_ATOM_DEF_STEREO_COUNT>
0

>  <PUBCHEM_ATOM_UDEF_STEREO_COUNT>
5

>  <PUBCHEM_BOND_DEF_STEREO_COUNT>
0

>  <PUBCHEM_BOND_UDEF_STEREO_COUNT>
0

>  <PUBCHEM_ISOTOPIC_ATOM_COUNT>
0

>  <PUBCHEM_COMPONENT_COUNT>
1

>  <PUBCHEM_CACTVS_TAUTO_COUNT>
-1

>  <PUBCHEM_COORDINATE_TYPE>
1
5
255

>  <PUBCHEM_BONDANNOTATIONS>
7  1  3
2  4  3
3  9  3
6  17  3
8  10  3

$$$$
