88480
 OpenBabel05082101102D

 36 36  0  0  1  0  0  0  0  0999 V2000
    3.7320    0.0000    0.0000 O   0  0  0  0  0  0  0  0  0  0  0  0
    2.8660   -1.5000    0.0000 O   0  0  0  0  0  0  0  0  0  0  0  0
    5.4641    0.0000    0.0000 C   0  0  2  0  0  0  0  0  0  0  0  0
    5.4641    1.0000    0.0000 C   0  0  0  0  0  0  0  0  0  0  0  0
    4.5981   -0.5000    0.0000 C   0  0  1  0  0  0  0  0  0  0  0  0
    6.3301   -0.5000    0.0000 C   0  0  0  0  0  0  0  0  0  0  0  0
    4.5981   -1.5000    0.0000 C   0  0  0  0  0  0  0  0  0  0  0  0
    6.3301   -1.5000    0.0000 C   0  0  0  0  0  0  0  0  0  0  0  0
    5.4641   -2.0000    0.0000 C   0  0  0  0  0  0  0  0  0  0  0  0
    5.4641    2.0000    0.0000 C   0  0  0  0  0  0  0  0  0  0  0  0
    6.4641    1.0000    0.0000 C   0  0  0  0  0  0  0  0  0  0  0  0
    4.4641    1.0000    0.0000 C   0  0  0  0  0  0  0  0  0  0  0  0
    2.8660   -0.5000    0.0000 C   0  0  0  0  0  0  0  0  0  0  0  0
    2.0000    0.0000    0.0000 C   0  0  0  0  0  0  0  0  0  0  0  0
    6.2002    0.4250    0.0000 H   0  0  0  0  0  0  0  0  0  0  0  0
    4.5981    0.1200    0.0000 H   0  0  0  0  0  0  0  0  0  0  0  0
    6.9407   -0.6077    0.0000 H   0  0  0  0  0  0  0  0  0  0  0  0
    6.5422    0.0826    0.0000 H   0  0  0  0  0  0  0  0  0  0  0  0
    3.9875   -1.3923    0.0000 H   0  0  0  0  0  0  0  0  0  0  0  0
    4.3860   -2.0826    0.0000 H   0  0  0  0  0  0  0  0  0  0  0  0
    6.5422   -2.0826    0.0000 H   0  0  0  0  0  0  0  0  0  0  0  0
    6.9407   -1.3923    0.0000 H   0  0  0  0  0  0  0  0  0  0  0  0
    5.0656   -2.4750    0.0000 H   0  0  0  0  0  0  0  0  0  0  0  0
    5.8626   -2.4750    0.0000 H   0  0  0  0  0  0  0  0  0  0  0  0
    6.0841    2.0000    0.0000 H   0  0  0  0  0  0  0  0  0  0  0  0
    5.4641    2.6200    0.0000 H   0  0  0  0  0  0  0  0  0  0  0  0
    4.8441    2.0000    0.0000 H   0  0  0  0  0  0  0  0  0  0  0  0
    6.4641    0.3800    0.0000 H   0  0  0  0  0  0  0  0  0  0  0  0
    7.0841    1.0000    0.0000 H   0  0  0  0  0  0  0  0  0  0  0  0
    6.4641    1.6200    0.0000 H   0  0  0  0  0  0  0  0  0  0  0  0
    4.4641    1.6200    0.0000 H   0  0  0  0  0  0  0  0  0  0  0  0
    3.8441    1.0000    0.0000 H   0  0  0  0  0  0  0  0  0  0  0  0
    4.4641    0.3800    0.0000 H   0  0  0  0  0  0  0  0  0  0  0  0
    2.3100    0.5369    0.0000 H   0  0  0  0  0  0  0  0  0  0  0  0
    1.4631    0.3100    0.0000 H   0  0  0  0  0  0  0  0  0  0  0  0
    1.6900   -0.5369    0.0000 H   0  0  0  0  0  0  0  0  0  0  0  0
  1 13  1  0  0  0  0
  2 13  2  0  0  0  0
  3  4  1  0  0  0  0
  3  5  1  0  0  0  0
  3  6  1  0  0  0  0
  3 15  1  6  0  0  0
  4 10  1  0  0  0  0
  4 11  1  0  0  0  0
  4 12  1  0  0  0  0
  5  1  1  0  0  0  0
  5  7  1  0  0  0  0
  5 16  1  6  0  0  0
  6  8  1  0  0  0  0
  6 17  1  0  0  0  0
  6 18  1  0  0  0  0
  7  9  1  0  0  0  0
  7 19  1  0  0  0  0
  7 20  1  0  0  0  0
  8  9  1  0  0  0  0
  8 21  1  0  0  0  0
  8 22  1  0  0  0  0
  9 23  1  0  0  0  0
  9 24  1  0  0  0  0
 10 25  1  0  0  0  0
 10 26  1  0  0  0  0
 10 27  1  0  0  0  0
 11 28  1  0  0  0  0
 11 29  1  0  0  0  0
 11 30  1  0  0  0  0
 12 31  1  0  0  0  0
 12 32  1  0  0  0  0
 12 33  1  0  0  0  0
 13 14  1  0  0  0  0
 14 34  1  0  0  0  0
 14 35  1  0  0  0  0
 14 36  1  0  0  0  0
M  END
>  <PUBCHEM_COMPOUND_CID>
88480

>  <PUBCHEM_COMPOUND_CANONICALIZED>
1

>  <PUBCHEM_CACTVS_COMPLEXITY>
203

>  <PUBCHEM_CACTVS_HBOND_ACCEPTOR>
2

>  <PUBCHEM_CACTVS_HBOND_DONOR>
0

>  <PUBCHEM_CACTVS_ROTATABLE_BOND>
3

>  <PUBCHEM_CACTVS_SUBSKEYS>
AAADceBwMAAAAAAAAAAAAAAAAAAAAAAAAAAwAAAAAAAAAAAAAAAAGgAAAAAADxSggAICCAAABAAIAACQCAAAAAAAAAAAAAAAAAAAAAIAAAACAAAEAAAAAAGAwOAPgAAAAAAAAAAAAAAAABAAAAAAAAAAAA==

>  <PUBCHEM_IUPAC_OPENEYE_NAME>
[(1R,2R)-2-tert-butylcyclohexyl] acetate

>  <PUBCHEM_IUPAC_CAS_NAME>
acetic acid [(1R,2R)-2-tert-butylcyclohexyl] ester

>  <PUBCHEM_IUPAC_NAME_MARKUP>
[(1<I>R</I>,2<I>R</I>)-2-<I>tert</I>-butylcyclohexyl] acetate

>  <PUBCHEM_IUPAC_NAME>
[(1R,2R)-2-tert-butylcyclohexyl] acetate

>  <PUBCHEM_IUPAC_SYSTEMATIC_NAME>
[(1R,2R)-2-tert-butylcyclohexyl] ethanoate

>  <PUBCHEM_IUPAC_TRADITIONAL_NAME>
acetic acid [(1R,2R)-2-tert-butylcyclohexyl] ester

>  <PUBCHEM_IUPAC_INCHI>
InChI=1S/C12H22O2/c1-9(13)14-11-8-6-5-7-10(11)12(2,3)4/h10-11H,5-8H2,1-4H3/t10-,11+/m0/s1

>  <PUBCHEM_IUPAC_INCHIKEY>
FINOAUDUYKVGDS-WDEREUQCSA-N

>  <PUBCHEM_XLOGP3_AA>
3.6

>  <PUBCHEM_EXACT_MASS>
198.16198

>  <PUBCHEM_MOLECULAR_FORMULA>
C12H22O2

>  <PUBCHEM_MOLECULAR_WEIGHT>
198.3

>  <PUBCHEM_OPENEYE_CAN_SMILES>
CC(=O)OC1CCCCC1C(C)(C)C

>  <PUBCHEM_OPENEYE_ISO_SMILES>
CC(=O)O[C@@H]1CCCC[C@@H]1C(C)(C)C

>  <PUBCHEM_CACTVS_TPSA>
26.3

>  <PUBCHEM_MONOISOTOPIC_WEIGHT>
198.16198

>  <PUBCHEM_TOTAL_CHARGE>
0

>  <PUBCHEM_HEAVY_ATOM_COUNT>
14

>  <PUBCHEM_ATOM_DEF_STEREO_COUNT>
2

>  <PUBCHEM_ATOM_UDEF_STEREO_COUNT>
0

>  <PUBCHEM_BOND_DEF_STEREO_COUNT>
0

>  <PUBCHEM_BOND_UDEF_STEREO_COUNT>
0

>  <PUBCHEM_ISOTOPIC_ATOM_COUNT>
0

>  <PUBCHEM_COMPONENT_COUNT>
1

>  <PUBCHEM_CACTVS_TAUTO_COUNT>
-1

>  <PUBCHEM_COORDINATE_TYPE>
1
5
255

>  <PUBCHEM_BONDANNOTATIONS>
5  1  5
3  15  6

$$$$
