79240
 OpenBabel05082101102D

 31 31  0  0  0  0  0  0  0  0999 V2000
    3.7320    0.7500    0.0000 O   0  0  0  0  0  0  0  0  0  0  0  0
    4.5981    2.2500    0.0000 C   0  0  0  0  0  0  0  0  0  0  0  0
    4.5981    1.2500    0.0000 C   0  0  0  0  0  0  0  0  0  0  0  0
    2.8660   -0.7500    0.0000 C   0  0  0  0  0  0  0  0  0  0  0  0
    5.4641    2.7500    0.0000 C   0  0  0  0  0  0  0  0  0  0  0  0
    3.7320   -0.2500    0.0000 C   0  0  0  0  0  0  0  0  0  0  0  0
    2.8660   -1.7500    0.0000 C   0  0  0  0  0  0  0  0  0  0  0  0
    5.4641    3.7500    0.0000 C   0  0  0  0  0  0  0  0  0  0  0  0
    2.0000   -2.2500    0.0000 C   0  0  0  0  0  0  0  0  0  0  0  0
    3.7320   -2.2500    0.0000 C   0  0  0  0  0  0  0  0  0  0  0  0
    2.0000   -3.2500    0.0000 C   0  0  0  0  0  0  0  0  0  0  0  0
    3.7320   -3.2500    0.0000 C   0  0  0  0  0  0  0  0  0  0  0  0
    2.8660   -3.7500    0.0000 C   0  0  0  0  0  0  0  0  0  0  0  0
    4.3860    2.8326    0.0000 H   0  0  0  0  0  0  0  0  0  0  0  0
    3.9875    2.1423    0.0000 H   0  0  0  0  0  0  0  0  0  0  0  0
    4.8101    0.6674    0.0000 H   0  0  0  0  0  0  0  0  0  0  0  0
    5.2087    1.3577    0.0000 H   0  0  0  0  0  0  0  0  0  0  0  0
    2.6540   -0.1674    0.0000 H   0  0  0  0  0  0  0  0  0  0  0  0
    2.2554   -0.8577    0.0000 H   0  0  0  0  0  0  0  0  0  0  0  0
    5.6762    2.1674    0.0000 H   0  0  0  0  0  0  0  0  0  0  0  0
    6.0747    2.8577    0.0000 H   0  0  0  0  0  0  0  0  0  0  0  0
    3.9441   -0.8326    0.0000 H   0  0  0  0  0  0  0  0  0  0  0  0
    4.3426   -0.1423    0.0000 H   0  0  0  0  0  0  0  0  0  0  0  0
    6.0841    3.7500    0.0000 H   0  0  0  0  0  0  0  0  0  0  0  0
    5.4641    4.3700    0.0000 H   0  0  0  0  0  0  0  0  0  0  0  0
    4.8441    3.7500    0.0000 H   0  0  0  0  0  0  0  0  0  0  0  0
    1.4631   -1.9400    0.0000 H   0  0  0  0  0  0  0  0  0  0  0  0
    4.2690   -1.9400    0.0000 H   0  0  0  0  0  0  0  0  0  0  0  0
    1.4631   -3.5600    0.0000 H   0  0  0  0  0  0  0  0  0  0  0  0
    4.2690   -3.5600    0.0000 H   0  0  0  0  0  0  0  0  0  0  0  0
    2.8660   -4.3700    0.0000 H   0  0  0  0  0  0  0  0  0  0  0  0
  1  3  1  0  0  0  0
  1  6  1  0  0  0  0
  2  3  1  0  0  0  0
  2  5  1  0  0  0  0
  2 14  1  0  0  0  0
  2 15  1  0  0  0  0
  3 16  1  0  0  0  0
  3 17  1  0  0  0  0
  4  6  1  0  0  0  0
  4  7  1  0  0  0  0
  4 18  1  0  0  0  0
  4 19  1  0  0  0  0
  5  8  1  0  0  0  0
  5 20  1  0  0  0  0
  5 21  1  0  0  0  0
  6 22  1  0  0  0  0
  6 23  1  0  0  0  0
  7  9  2  0  0  0  0
  7 10  1  0  0  0  0
  8 24  1  0  0  0  0
  8 25  1  0  0  0  0
  8 26  1  0  0  0  0
  9 11  1  0  0  0  0
  9 27  1  0  0  0  0
 10 12  2  0  0  0  0
 10 28  1  0  0  0  0
 11 13  2  0  0  0  0
 11 29  1  0  0  0  0
 12 13  1  0  0  0  0
 12 30  1  0  0  0  0
 13 31  1  0  0  0  0
M  END
>  <PUBCHEM_COMPOUND_CID>
79240

>  <PUBCHEM_COMPOUND_CANONICALIZED>
1

>  <PUBCHEM_CACTVS_COMPLEXITY>
106

>  <PUBCHEM_CACTVS_HBOND_ACCEPTOR>
1

>  <PUBCHEM_CACTVS_HBOND_DONOR>
0

>  <PUBCHEM_CACTVS_ROTATABLE_BOND>
6

>  <PUBCHEM_CACTVS_SUBSKEYS>
AAADceBwIAAAAAAAAAAAAAAAAAAAAAAAAAAwAAAAAAAAAAABAAAAGgAAAAAADACgmAIyAIAABACAAiBCAAACAAAgAAAIiAAAAIgIICKAERCCIAAkwAEIiAeAwKAOAAAAAAAAAAAAAAAAAAAAAAAAAAAAAA==

>  <PUBCHEM_IUPAC_OPENEYE_NAME>
2-butoxyethylbenzene

>  <PUBCHEM_IUPAC_CAS_NAME>
2-butoxyethylbenzene

>  <PUBCHEM_IUPAC_NAME_MARKUP>
2-butoxyethylbenzene

>  <PUBCHEM_IUPAC_NAME>
2-butoxyethylbenzene

>  <PUBCHEM_IUPAC_SYSTEMATIC_NAME>
2-butoxyethylbenzene

>  <PUBCHEM_IUPAC_TRADITIONAL_NAME>
2-butoxyethylbenzene

>  <PUBCHEM_IUPAC_INCHI>
InChI=1S/C12H18O/c1-2-3-10-13-11-9-12-7-5-4-6-8-12/h4-8H,2-3,9-11H2,1H3

>  <PUBCHEM_IUPAC_INCHIKEY>
KLJOZKBZXLRMLU-UHFFFAOYSA-N

>  <PUBCHEM_XLOGP3_AA>
3.3

>  <PUBCHEM_EXACT_MASS>
178.135765

>  <PUBCHEM_MOLECULAR_FORMULA>
C12H18O

>  <PUBCHEM_MOLECULAR_WEIGHT>
178.27

>  <PUBCHEM_OPENEYE_CAN_SMILES>
CCCCOCCC1=CC=CC=C1

>  <PUBCHEM_OPENEYE_ISO_SMILES>
CCCCOCCC1=CC=CC=C1

>  <PUBCHEM_CACTVS_TPSA>
9.2

>  <PUBCHEM_MONOISOTOPIC_WEIGHT>
178.135765

>  <PUBCHEM_TOTAL_CHARGE>
0

>  <PUBCHEM_HEAVY_ATOM_COUNT>
13

>  <PUBCHEM_ATOM_DEF_STEREO_COUNT>
0

>  <PUBCHEM_ATOM_UDEF_STEREO_COUNT>
0

>  <PUBCHEM_BOND_DEF_STEREO_COUNT>
0

>  <PUBCHEM_BOND_UDEF_STEREO_COUNT>
0

>  <PUBCHEM_ISOTOPIC_ATOM_COUNT>
0

>  <PUBCHEM_COMPONENT_COUNT>
1

>  <PUBCHEM_CACTVS_TAUTO_COUNT>
-1

>  <PUBCHEM_COORDINATE_TYPE>
1
5
255

>  <PUBCHEM_BONDANNOTATIONS>
10  12  8
11  13  8
12  13  8
7  10  8
7  9  8
9  11  8

$$$$
