24857
 OpenBabel05082101102D

  1  0  0  0  0  0  0  0  0  0999 V2000
    2.0000    0.0000    0.0000 Rn  0  0  0  0  0  0  0  0  0  0  0  0
M  END
>  <PUBCHEM_COMPOUND_CID>
24857

>  <PUBCHEM_COMPOUND_CANONICALIZED>
1

>  <PUBCHEM_CACTVS_COMPLEXITY>
0

>  <PUBCHEM_CACTVS_HBOND_ACCEPTOR>
0

>  <PUBCHEM_CACTVS_HBOND_DONOR>
0

>  <PUBCHEM_CACTVS_ROTATABLE_BOND>
0

>  <PUBCHEM_CACTVS_SUBSKEYS>
AAADcQAAAAAAAAAAAAAAAAAAAAAAAAAAAAAAAAAAAAAAAAAAAAAAAAAAAAAAAAAAAAAAAAAAAAAAAAAAAAAAAAAAAAAAAAAAAAAAAAAAAAAAAAAAAAAAAAAAAAAAAAAAAAAAAAAAAAAAAAAAAAAAAAAAAA==

>  <PUBCHEM_IUPAC_OPENEYE_NAME>
radon

>  <PUBCHEM_IUPAC_CAS_NAME>
radon

>  <PUBCHEM_IUPAC_NAME_MARKUP>
radon

>  <PUBCHEM_IUPAC_NAME>
radon

>  <PUBCHEM_IUPAC_SYSTEMATIC_NAME>
radon

>  <PUBCHEM_IUPAC_TRADITIONAL_NAME>
radon

>  <PUBCHEM_IUPAC_INCHI>
InChI=1S/Rn

>  <PUBCHEM_IUPAC_INCHIKEY>
SYUHGPGVQRZVTB-UHFFFAOYSA-N

>  <PUBCHEM_EXACT_MASS>
222.01758

>  <PUBCHEM_MOLECULAR_FORMULA>
Rn

>  <PUBCHEM_MOLECULAR_WEIGHT>
222.01758

>  <PUBCHEM_OPENEYE_CAN_SMILES>
[Rn]

>  <PUBCHEM_OPENEYE_ISO_SMILES>
[Rn]

>  <PUBCHEM_CACTVS_TPSA>
0

>  <PUBCHEM_MONOISOTOPIC_WEIGHT>
222.01758

>  <PUBCHEM_TOTAL_CHARGE>
0

>  <PUBCHEM_HEAVY_ATOM_COUNT>
1

>  <PUBCHEM_ATOM_DEF_STEREO_COUNT>
0

>  <PUBCHEM_ATOM_UDEF_STEREO_COUNT>
0

>  <PUBCHEM_BOND_DEF_STEREO_COUNT>
0

>  <PUBCHEM_BOND_UDEF_STEREO_COUNT>
0

>  <PUBCHEM_ISOTOPIC_ATOM_COUNT>
0

>  <PUBCHEM_COMPONENT_COUNT>
1

>  <PUBCHEM_CACTVS_TAUTO_COUNT>
-1

>  <PUBCHEM_COORDINATE_TYPE>
1
5
255

$$$$
