85053
 OpenBabel05082101102D

 14 14  0  0  0  0  0  0  0  0999 V2000
    2.8090   -0.4197    0.0000 S   0  0  0  0  0  0  0  0  0  0  0  0
    3.3090    1.1191    0.0000 N   0  0  0  0  0  0  0  0  0  0  0  0
    4.5691   -0.1410    0.0000 C   0  0  0  0  0  0  0  0  0  0  0  0
    3.6180    0.1681    0.0000 C   0  0  0  0  0  0  0  0  0  0  0  0
    4.7770   -1.1191    0.0000 C   0  0  0  0  0  0  0  0  0  0  0  0
    2.0000    0.1681    0.0000 C   0  0  0  0  0  0  0  0  0  0  0  0
    2.3090    1.1191    0.0000 C   0  0  0  0  0  0  0  0  0  0  0  0
    5.1887   -0.1193    0.0000 H   0  0  0  0  0  0  0  0  0  0  0  0
    4.6554    0.4730    0.0000 H   0  0  0  0  0  0  0  0  0  0  0  0
    4.1706   -1.2480    0.0000 H   0  0  0  0  0  0  0  0  0  0  0  0
    4.9059   -1.7256    0.0000 H   0  0  0  0  0  0  0  0  0  0  0  0
    5.3834   -0.9902    0.0000 H   0  0  0  0  0  0  0  0  0  0  0  0
    1.4103   -0.0235    0.0000 H   0  0  0  0  0  0  0  0  0  0  0  0
    1.9446    1.6207    0.0000 H   0  0  0  0  0  0  0  0  0  0  0  0
  1  4  1  0  0  0  0
  1  6  1  0  0  0  0
  2  4  2  0  0  0  0
  2  7  1  0  0  0  0
  3  4  1  0  0  0  0
  3  5  1  0  0  0  0
  3  8  1  0  0  0  0
  3  9  1  0  0  0  0
  5 10  1  0  0  0  0
  5 11  1  0  0  0  0
  5 12  1  0  0  0  0
  6  7  2  0  0  0  0
  6 13  1  0  0  0  0
  7 14  1  0  0  0  0
M  END
>  <PUBCHEM_COMPOUND_CID>
85053

>  <PUBCHEM_COMPOUND_CANONICALIZED>
1

>  <PUBCHEM_CACTVS_COMPLEXITY>
56

>  <PUBCHEM_CACTVS_HBOND_ACCEPTOR>
2

>  <PUBCHEM_CACTVS_HBOND_DONOR>
0

>  <PUBCHEM_CACTVS_ROTATABLE_BOND>
1

>  <PUBCHEM_CACTVS_SUBSKEYS>
AAADcYBiAABAAAAAAAAAAAAAAAAAAWAAAAAAAAAAAAAAAAABgAAAHAQAAAAACADFQgSugRIIEAikABAnRAAA8KBRCjhIQAw4IAAAAAAgAAAEAAAAAACgAAAAAAAAAAAAAAAAAAAAAAAAAAAAAAAAAAAAAA==

>  <PUBCHEM_IUPAC_OPENEYE_NAME>
2-ethylthiazole

>  <PUBCHEM_IUPAC_CAS_NAME>
2-ethylthiazole

>  <PUBCHEM_IUPAC_NAME_MARKUP>
2-ethyl-1,3-thiazole

>  <PUBCHEM_IUPAC_NAME>
2-ethyl-1,3-thiazole

>  <PUBCHEM_IUPAC_SYSTEMATIC_NAME>
2-ethyl-1,3-thiazole

>  <PUBCHEM_IUPAC_TRADITIONAL_NAME>
2-ethylthiazole

>  <PUBCHEM_IUPAC_INCHI>
InChI=1S/C5H7NS/c1-2-5-6-3-4-7-5/h3-4H,2H2,1H3

>  <PUBCHEM_IUPAC_INCHIKEY>
CGZDWVZMOMDGBN-UHFFFAOYSA-N

>  <PUBCHEM_XLOGP3_AA>
1.8

>  <PUBCHEM_EXACT_MASS>
113.02992

>  <PUBCHEM_MOLECULAR_FORMULA>
C5H7NS

>  <PUBCHEM_MOLECULAR_WEIGHT>
113.18

>  <PUBCHEM_OPENEYE_CAN_SMILES>
CCC1=NC=CS1

>  <PUBCHEM_OPENEYE_ISO_SMILES>
CCC1=NC=CS1

>  <PUBCHEM_CACTVS_TPSA>
41.1

>  <PUBCHEM_MONOISOTOPIC_WEIGHT>
113.02992

>  <PUBCHEM_TOTAL_CHARGE>
0

>  <PUBCHEM_HEAVY_ATOM_COUNT>
7

>  <PUBCHEM_ATOM_DEF_STEREO_COUNT>
0

>  <PUBCHEM_ATOM_UDEF_STEREO_COUNT>
0

>  <PUBCHEM_BOND_DEF_STEREO_COUNT>
0

>  <PUBCHEM_BOND_UDEF_STEREO_COUNT>
0

>  <PUBCHEM_ISOTOPIC_ATOM_COUNT>
0

>  <PUBCHEM_COMPONENT_COUNT>
1

>  <PUBCHEM_CACTVS_TAUTO_COUNT>
-1

>  <PUBCHEM_COORDINATE_TYPE>
1
5
255

>  <PUBCHEM_BONDANNOTATIONS>
1  4  8
1  6  8
2  4  8
2  7  8
6  7  8

$$$$
