15369664
 OpenBabel05082101102D

 27 27  0  0  1  0  0  0  0  0999 V2000
    2.5369    0.7500    0.0000 O   0  0  0  0  0  0  0  0  0  0  0  0
    3.4030    2.2500    0.0000 O   0  0  0  0  0  0  0  0  0  0  0  0
    4.2690   -1.2500    0.0000 C   0  0  3  0  0  0  0  0  0  0  0  0
    4.2690    0.7500    0.0000 C   0  0  3  0  0  0  0  0  0  0  0  0
    3.4030    0.2500    0.0000 C   0  0  3  0  0  0  0  0  0  0  0  0
    3.4030   -0.7500    0.0000 C   0  0  0  0  0  0  0  0  0  0  0  0
    5.1350   -0.7500    0.0000 C   0  0  0  0  0  0  0  0  0  0  0  0
    5.1350    0.2500    0.0000 C   0  0  0  0  0  0  0  0  0  0  0  0
    4.2690   -2.2500    0.0000 C   0  0  0  0  0  0  0  0  0  0  0  0
    4.2690    1.7500    0.0000 C   0  0  0  0  0  0  0  0  0  0  0  0
    5.1350    2.2500    0.0000 C   0  0  0  0  0  0  0  0  0  0  0  0
    4.8059   -1.5600    0.0000 H   0  0  0  0  0  0  0  0  0  0  0  0
    4.8059    1.0600    0.0000 H   0  0  0  0  0  0  0  0  0  0  0  0
    3.4030    0.8700    0.0000 H   0  0  0  0  0  0  0  0  0  0  0  0
    2.7924   -0.6423    0.0000 H   0  0  0  0  0  0  0  0  0  0  0  0
    3.1909   -1.3326    0.0000 H   0  0  0  0  0  0  0  0  0  0  0  0
    5.3471   -1.3326    0.0000 H   0  0  0  0  0  0  0  0  0  0  0  0
    5.7456   -0.6423    0.0000 H   0  0  0  0  0  0  0  0  0  0  0  0
    5.7456    0.1423    0.0000 H   0  0  0  0  0  0  0  0  0  0  0  0
    5.3471    0.8326    0.0000 H   0  0  0  0  0  0  0  0  0  0  0  0
    3.6490   -2.2500    0.0000 H   0  0  0  0  0  0  0  0  0  0  0  0
    4.2690   -2.8700    0.0000 H   0  0  0  0  0  0  0  0  0  0  0  0
    4.8890   -2.2500    0.0000 H   0  0  0  0  0  0  0  0  0  0  0  0
    2.0000    0.4400    0.0000 H   0  0  0  0  0  0  0  0  0  0  0  0
    5.4450    1.7131    0.0000 H   0  0  0  0  0  0  0  0  0  0  0  0
    5.6720    2.5600    0.0000 H   0  0  0  0  0  0  0  0  0  0  0  0
    4.8250    2.7869    0.0000 H   0  0  0  0  0  0  0  0  0  0  0  0
  1  5  1  0  0  0  0
  1 24  1  0  0  0  0
  2 10  2  0  0  0  0
  3  6  1  0  0  0  0
  3  7  1  0  0  0  0
  3  9  1  0  0  0  0
  3 12  1  0  0  0  0
  4  5  1  0  0  0  0
  4  8  1  0  0  0  0
  4 10  1  0  0  0  0
  4 13  1  0  0  0  0
  5  6  1  0  0  0  0
  5 14  1  0  0  0  0
  6 15  1  0  0  0  0
  6 16  1  0  0  0  0
  7  8  1  0  0  0  0
  7 17  1  0  0  0  0
  7 18  1  0  0  0  0
  8 19  1  0  0  0  0
  8 20  1  0  0  0  0
  9 21  1  0  0  0  0
  9 22  1  0  0  0  0
  9 23  1  0  0  0  0
 10 11  1  0  0  0  0
 11 25  1  0  0  0  0
 11 26  1  0  0  0  0
 11 27  1  0  0  0  0
M  END
>  <PUBCHEM_COMPOUND_CID>
15369664

>  <PUBCHEM_COMPOUND_CANONICALIZED>
1

>  <PUBCHEM_CACTVS_COMPLEXITY>
154

>  <PUBCHEM_CACTVS_HBOND_ACCEPTOR>
2

>  <PUBCHEM_CACTVS_HBOND_DONOR>
1

>  <PUBCHEM_CACTVS_ROTATABLE_BOND>
1

>  <PUBCHEM_CACTVS_SUBSKEYS>
AAADceBwMAAAAAAAAAAAAAAAAAAAAAAAAAAwAAAAAAAAAAAAAAAAGgAACAAADRSggAICAAAAAgAIAIAQAAAAAAAAAAAAAAEAAAAAEBYAAAAAQAAEIAAAAAGIyPCOAAAAAAAAAACAAAIAABAAAAAAAAAAAA==

>  <PUBCHEM_IUPAC_OPENEYE_NAME>
1-(2-hydroxy-4-methyl-cyclohexyl)ethanone

>  <PUBCHEM_IUPAC_CAS_NAME>
1-(2-hydroxy-4-methylcyclohexyl)ethanone

>  <PUBCHEM_IUPAC_NAME_MARKUP>
1-(2-hydroxy-4-methylcyclohexyl)ethanone

>  <PUBCHEM_IUPAC_NAME>
1-(2-hydroxy-4-methylcyclohexyl)ethanone

>  <PUBCHEM_IUPAC_SYSTEMATIC_NAME>
1-(4-methyl-2-oxidanyl-cyclohexyl)ethanone

>  <PUBCHEM_IUPAC_TRADITIONAL_NAME>
1-(2-hydroxy-4-methyl-cyclohexyl)ethanone

>  <PUBCHEM_IUPAC_INCHI>
InChI=1S/C9H16O2/c1-6-3-4-8(7(2)10)9(11)5-6/h6,8-9,11H,3-5H2,1-2H3

>  <PUBCHEM_IUPAC_INCHIKEY>
VISJALGWOBQNEJ-UHFFFAOYSA-N

>  <PUBCHEM_XLOGP3_AA>
1.7

>  <PUBCHEM_EXACT_MASS>
156.11503

>  <PUBCHEM_MOLECULAR_FORMULA>
C9H16O2

>  <PUBCHEM_MOLECULAR_WEIGHT>
156.22

>  <PUBCHEM_OPENEYE_CAN_SMILES>
CC1CCC(C(C1)O)C(=O)C

>  <PUBCHEM_OPENEYE_ISO_SMILES>
CC1CCC(C(C1)O)C(=O)C

>  <PUBCHEM_CACTVS_TPSA>
37.3

>  <PUBCHEM_MONOISOTOPIC_WEIGHT>
156.11503

>  <PUBCHEM_TOTAL_CHARGE>
0

>  <PUBCHEM_HEAVY_ATOM_COUNT>
11

>  <PUBCHEM_ATOM_DEF_STEREO_COUNT>
0

>  <PUBCHEM_ATOM_UDEF_STEREO_COUNT>
3

>  <PUBCHEM_BOND_DEF_STEREO_COUNT>
0

>  <PUBCHEM_BOND_UDEF_STEREO_COUNT>
0

>  <PUBCHEM_ISOTOPIC_ATOM_COUNT>
0

>  <PUBCHEM_COMPONENT_COUNT>
1

>  <PUBCHEM_CACTVS_TAUTO_COUNT>
-1

>  <PUBCHEM_COORDINATE_TYPE>
1
5
255

>  <PUBCHEM_BONDANNOTATIONS>
5  1  3
3  9  3
4  10  3

$$$$
