6432315
 OpenBabel05082101102D

 20 18  0  0  1  0  0  0  0  0999 V2000
    2.2690    0.3100    0.0000 O   0  0  0  0  0  0  0  0  0  0  0  0
    3.1350    2.8100    0.0000 O   0  0  0  0  0  0  0  0  0  0  0  0
    0.5369    1.3100    0.0000 O   0  0  0  0  0  0  0  0  0  0  0  0
    1.4030    2.8100    0.0000 O   0  0  0  0  0  0  0  0  0  0  0  0
    4.8671    1.8100    0.0000 O   0  5  0  0  0  0  0  0  0  0  0  0
    4.0010    0.3100    0.0000 O   0  0  0  0  0  0  0  0  0  0  0  0
    2.4335    5.6569    0.0000 N   0  3  0  0  0  0  0  0  0  0  0  0
    2.2690    1.3100    0.0000 C   0  0  3  0  0  0  0  0  0  0  0  0
    3.1350    1.8100    0.0000 C   0  0  3  0  0  0  0  0  0  0  0  0
    1.4030    1.8100    0.0000 C   0  0  0  0  0  0  0  0  0  0  0  0
    4.0010    1.3100    0.0000 C   0  0  0  0  0  0  0  0  0  0  0  0
    2.8059    1.0000    0.0000 H   0  0  0  0  0  0  0  0  0  0  0  0
    3.6720    2.1200    0.0000 H   0  0  0  0  0  0  0  0  0  0  0  0
    1.7320    0.0000    0.0000 H   0  0  0  0  0  0  0  0  0  0  0  0
    3.6720    3.1200    0.0000 H   0  0  0  0  0  0  0  0  0  0  0  0
    0.0000    1.6200    0.0000 H   0  0  0  0  0  0  0  0  0  0  0  0
    2.9705    5.9669    0.0000 H   0  0  0  0  0  0  0  0  0  0  0  0
    1.8966    5.3469    0.0000 H   0  0  0  0  0  0  0  0  0  0  0  0
    2.1235    6.1939    0.0000 H   0  0  0  0  0  0  0  0  0  0  0  0
    2.7435    5.1200    0.0000 H   0  0  0  0  0  0  0  0  0  0  0  0
  1  8  1  0  0  0  0
  1 14  1  0  0  0  0
  2  9  1  0  0  0  0
  2 15  1  0  0  0  0
  3 10  1  0  0  0  0
  3 16  1  0  0  0  0
  4 10  2  0  0  0  0
  5 11  1  0  0  0  0
  6 11  2  0  0  0  0
  7 17  1  0  0  0  0
  7 18  1  0  0  0  0
  7 19  1  0  0  0  0
  7 20  1  0  0  0  0
  8  9  1  0  0  0  0
  8 10  1  0  0  0  0
  8 12  1  0  0  0  0
  9 11  1  0  0  0  0
  9 13  1  0  0  0  0
M  CHG  2   5  -1   7   1
M  END
>  <PUBCHEM_COMPOUND_CID>
6432315

>  <PUBCHEM_COMPOUND_CANONICALIZED>
1

>  <PUBCHEM_CACTVS_COMPLEXITY>
146

>  <PUBCHEM_CACTVS_HBOND_ACCEPTOR>
6

>  <PUBCHEM_CACTVS_HBOND_DONOR>
4

>  <PUBCHEM_CACTVS_ROTATABLE_BOND>
2

>  <PUBCHEM_CACTVS_SUBSKEYS>
AAADccBiOAAAAAAAAAAAAAAAAAAAAAAAAAAAAAAAAAAAAAAAAAAAGgAQCAAACBSggAIACAAAAgAIAACQCAIAAAAAAAAAAAFAAAABEBQAAAAAQAAFIAABAABDAAAAAAAAAAAAAAAAAAAAAAAAAAAAAAAAAA==

>  <PUBCHEM_IUPAC_OPENEYE_NAME>
ammonium;2,3,4-trihydroxy-4-oxo-butanoate

>  <PUBCHEM_IUPAC_CAS_NAME>
ammonium;2,3,4-trihydroxy-4-oxobutanoate

>  <PUBCHEM_IUPAC_NAME_MARKUP>
azanium;2,3,4-trihydroxy-4-oxobutanoate

>  <PUBCHEM_IUPAC_NAME>
azanium;2,3,4-trihydroxy-4-oxobutanoate

>  <PUBCHEM_IUPAC_SYSTEMATIC_NAME>
azanium;2,3,4-tris(oxidanyl)-4-oxidanylidene-butanoate

>  <PUBCHEM_IUPAC_TRADITIONAL_NAME>
ammonium;2,3,4-trihydroxy-4-keto-butyrate

>  <PUBCHEM_IUPAC_INCHI>
InChI=1S/C4H6O6.H3N/c5-1(3(7)8)2(6)4(9)10;/h1-2,5-6H,(H,7,8)(H,9,10);1H3

>  <PUBCHEM_IUPAC_INCHIKEY>
ZMFVLYPTTFPBNG-UHFFFAOYSA-N

>  <PUBCHEM_EXACT_MASS>
167.042987

>  <PUBCHEM_MOLECULAR_FORMULA>
C4H9NO6

>  <PUBCHEM_MOLECULAR_WEIGHT>
167.12

>  <PUBCHEM_OPENEYE_CAN_SMILES>
C(C(C(=O)[O-])O)(C(=O)O)O.[NH4+]

>  <PUBCHEM_OPENEYE_ISO_SMILES>
C(C(C(=O)[O-])O)(C(=O)O)O.[NH4+]

>  <PUBCHEM_CACTVS_TPSA>
119

>  <PUBCHEM_MONOISOTOPIC_WEIGHT>
167.042987

>  <PUBCHEM_TOTAL_CHARGE>
0

>  <PUBCHEM_HEAVY_ATOM_COUNT>
11

>  <PUBCHEM_ATOM_DEF_STEREO_COUNT>
0

>  <PUBCHEM_ATOM_UDEF_STEREO_COUNT>
2

>  <PUBCHEM_BOND_DEF_STEREO_COUNT>
0

>  <PUBCHEM_BOND_UDEF_STEREO_COUNT>
0

>  <PUBCHEM_ISOTOPIC_ATOM_COUNT>
0

>  <PUBCHEM_COMPONENT_COUNT>
2

>  <PUBCHEM_CACTVS_TAUTO_COUNT>
-1

>  <PUBCHEM_COORDINATE_TYPE>
1
5
255

>  <PUBCHEM_BONDANNOTATIONS>
8  1  3
9  2  3

$$$$
