89723
 OpenBabel05082101102D

 31 30  0  0  1  0  0  0  0  0999 V2000
    2.5369    0.2500    0.0000 O   0  0  0  0  0  0  0  0  0  0  0  0
    3.4030    0.7500    0.0000 N   0  0  0  0  0  0  0  0  0  0  0  0
    6.0010    0.2500    0.0000 C   0  0  3  0  0  0  0  0  0  0  0  0
    6.8671    0.7500    0.0000 C   0  0  0  0  0  0  0  0  0  0  0  0
    7.7331    0.2500    0.0000 C   0  0  0  0  0  0  0  0  0  0  0  0
    5.1350    0.7500    0.0000 C   0  0  0  0  0  0  0  0  0  0  0  0
    6.0010   -0.7500    0.0000 C   0  0  0  0  0  0  0  0  0  0  0  0
    8.5991    0.7500    0.0000 C   0  0  0  0  0  0  0  0  0  0  0  0
    4.2690    0.2500    0.0000 C   0  0  0  0  0  0  0  0  0  0  0  0
    9.4651    0.2500    0.0000 C   0  0  0  0  0  0  0  0  0  0  0  0
   10.3312    0.7500    0.0000 C   0  0  0  0  0  0  0  0  0  0  0  0
    9.4651   -0.7500    0.0000 C   0  0  0  0  0  0  0  0  0  0  0  0
    6.5380   -0.0600    0.0000 H   0  0  0  0  0  0  0  0  0  0  0  0
    7.2656    1.2250    0.0000 H   0  0  0  0  0  0  0  0  0  0  0  0
    6.4685    1.2250    0.0000 H   0  0  0  0  0  0  0  0  0  0  0  0
    7.3346   -0.2249    0.0000 H   0  0  0  0  0  0  0  0  0  0  0  0
    8.1316   -0.2249    0.0000 H   0  0  0  0  0  0  0  0  0  0  0  0
    5.5335    1.2250    0.0000 H   0  0  0  0  0  0  0  0  0  0  0  0
    4.7365    1.2250    0.0000 H   0  0  0  0  0  0  0  0  0  0  0  0
    5.3810   -0.7500    0.0000 H   0  0  0  0  0  0  0  0  0  0  0  0
    6.0010   -1.3700    0.0000 H   0  0  0  0  0  0  0  0  0  0  0  0
    6.6210   -0.7500    0.0000 H   0  0  0  0  0  0  0  0  0  0  0  0
    8.5991    1.3700    0.0000 H   0  0  0  0  0  0  0  0  0  0  0  0
    4.2690   -0.3700    0.0000 H   0  0  0  0  0  0  0  0  0  0  0  0
   10.6412    0.2131    0.0000 H   0  0  0  0  0  0  0  0  0  0  0  0
   10.8681    1.0600    0.0000 H   0  0  0  0  0  0  0  0  0  0  0  0
   10.0212    1.2869    0.0000 H   0  0  0  0  0  0  0  0  0  0  0  0
    8.8451   -0.7500    0.0000 H   0  0  0  0  0  0  0  0  0  0  0  0
    9.4651   -1.3700    0.0000 H   0  0  0  0  0  0  0  0  0  0  0  0
   10.0851   -0.7500    0.0000 H   0  0  0  0  0  0  0  0  0  0  0  0
    2.0000    0.5600    0.0000 H   0  0  0  0  0  0  0  0  0  0  0  0
  1  2  1  0  0  0  0
  1 31  1  0  0  0  0
  2  9  2  3  0  0  0
  3  4  1  0  0  0  0
  3  6  1  0  0  0  0
  3  7  1  0  0  0  0
  3 13  1  0  0  0  0
  4  5  1  0  0  0  0
  4 14  1  0  0  0  0
  4 15  1  0  0  0  0
  5  8  1  0  0  0  0
  5 16  1  0  0  0  0
  5 17  1  0  0  0  0
  6  9  1  0  0  0  0
  6 18  1  0  0  0  0
  6 19  1  0  0  0  0
  7 20  1  0  0  0  0
  7 21  1  0  0  0  0
  7 22  1  0  0  0  0
  8 10  2  0  0  0  0
  8 23  1  0  0  0  0
  9 24  1  0  0  0  0
 10 11  1  0  0  0  0
 10 12  1  0  0  0  0
 11 25  1  0  0  0  0
 11 26  1  0  0  0  0
 11 27  1  0  0  0  0
 12 28  1  0  0  0  0
 12 29  1  0  0  0  0
 12 30  1  0  0  0  0
M  END
>  <PUBCHEM_COMPOUND_CID>
89723

>  <PUBCHEM_COMPOUND_CANONICALIZED>
1

>  <PUBCHEM_CACTVS_COMPLEXITY>
157

>  <PUBCHEM_CACTVS_HBOND_ACCEPTOR>
2

>  <PUBCHEM_CACTVS_HBOND_DONOR>
1

>  <PUBCHEM_CACTVS_ROTATABLE_BOND>
5

>  <PUBCHEM_CACTVS_SUBSKEYS>
AAADceByIAAAAAAAAAAAAAAAAAAAAAAAAAAAAAAAAAAAAAAAAAAAHAAECAAADQDBAAQCAAAQAACgAjBjAAAAAAAgAAAACAAwAAgAAAIAAQAAAAAAgAAIAAMAAAAOAAAAAAAAAAAAAAAAAAAAAAAAAAAAAA==

>  <PUBCHEM_IUPAC_OPENEYE_NAME>
3,7-dimethyloct-6-enal oxime

>  <PUBCHEM_IUPAC_CAS_NAME>
3,7-dimethyl-6-octenal oxime

>  <PUBCHEM_IUPAC_NAME_MARKUP>
<I>N</I>-(3,7-dimethyloct-6-enylidene)hydroxylamine

>  <PUBCHEM_IUPAC_NAME>
N-(3,7-dimethyloct-6-enylidene)hydroxylamine

>  <PUBCHEM_IUPAC_SYSTEMATIC_NAME>
N-(3,7-dimethyloct-6-enylidene)hydroxylamine

>  <PUBCHEM_IUPAC_TRADITIONAL_NAME>
3,7-dimethyloct-6-enal oxime

>  <PUBCHEM_IUPAC_INCHI>
InChI=1S/C10H19NO/c1-9(2)5-4-6-10(3)7-8-11-12/h5,8,10,12H,4,6-7H2,1-3H3

>  <PUBCHEM_IUPAC_INCHIKEY>
JUCCIEVMICHZPK-UHFFFAOYSA-N

>  <PUBCHEM_XLOGP3_AA>
3.2

>  <PUBCHEM_EXACT_MASS>
169.146664

>  <PUBCHEM_MOLECULAR_FORMULA>
C10H19NO

>  <PUBCHEM_MOLECULAR_WEIGHT>
169.26

>  <PUBCHEM_OPENEYE_CAN_SMILES>
CC(CCC=C(C)C)CC=NO

>  <PUBCHEM_OPENEYE_ISO_SMILES>
CC(CCC=C(C)C)CC=NO

>  <PUBCHEM_CACTVS_TPSA>
32.6

>  <PUBCHEM_MONOISOTOPIC_WEIGHT>
169.146664

>  <PUBCHEM_TOTAL_CHARGE>
0

>  <PUBCHEM_HEAVY_ATOM_COUNT>
12

>  <PUBCHEM_ATOM_DEF_STEREO_COUNT>
0

>  <PUBCHEM_ATOM_UDEF_STEREO_COUNT>
1

>  <PUBCHEM_BOND_DEF_STEREO_COUNT>
0

>  <PUBCHEM_BOND_UDEF_STEREO_COUNT>
1

>  <PUBCHEM_ISOTOPIC_ATOM_COUNT>
0

>  <PUBCHEM_COMPONENT_COUNT>
1

>  <PUBCHEM_CACTVS_TAUTO_COUNT>
-1

>  <PUBCHEM_COORDINATE_TYPE>
1
5
255

>  <PUBCHEM_BONDANNOTATIONS>
2  9  1
3  7  3

$$$$
