61954
 OpenBabel05082101102D

 27 27  0  0  0  0  0  0  0  0999 V2000
    3.7320    0.5000    0.0000 O   0  0  0  0  0  0  0  0  0  0  0  0
    5.4641    0.5000    0.0000 O   0  0  0  0  0  0  0  0  0  0  0  0
    4.5981    2.0000    0.0000 C   0  0  0  0  0  0  0  0  0  0  0  0
    5.4641    2.5000    0.0000 C   0  0  0  0  0  0  0  0  0  0  0  0
    3.7320    2.5000    0.0000 C   0  0  0  0  0  0  0  0  0  0  0  0
    4.5981    1.0000    0.0000 C   0  0  0  0  0  0  0  0  0  0  0  0
    3.7320   -0.5000    0.0000 C   0  0  0  0  0  0  0  0  0  0  0  0
    2.8660   -1.0000    0.0000 C   0  0  0  0  0  0  0  0  0  0  0  0
    4.5981   -1.0000    0.0000 C   0  0  0  0  0  0  0  0  0  0  0  0
    2.8660   -2.0000    0.0000 C   0  0  0  0  0  0  0  0  0  0  0  0
    2.0000   -0.5000    0.0000 C   0  0  0  0  0  0  0  0  0  0  0  0
    4.5981   -2.0000    0.0000 C   0  0  0  0  0  0  0  0  0  0  0  0
    3.7320   -2.5000    0.0000 C   0  0  0  0  0  0  0  0  0  0  0  0
    4.5981    2.6200    0.0000 H   0  0  0  0  0  0  0  0  0  0  0  0
    5.7741    1.9631    0.0000 H   0  0  0  0  0  0  0  0  0  0  0  0
    6.0010    2.8100    0.0000 H   0  0  0  0  0  0  0  0  0  0  0  0
    5.1541    3.0369    0.0000 H   0  0  0  0  0  0  0  0  0  0  0  0
    4.0420    3.0369    0.0000 H   0  0  0  0  0  0  0  0  0  0  0  0
    3.1951    2.8100    0.0000 H   0  0  0  0  0  0  0  0  0  0  0  0
    3.4220    1.9631    0.0000 H   0  0  0  0  0  0  0  0  0  0  0  0
    5.1350   -0.6900    0.0000 H   0  0  0  0  0  0  0  0  0  0  0  0
    2.3291   -2.3100    0.0000 H   0  0  0  0  0  0  0  0  0  0  0  0
    2.3100    0.0369    0.0000 H   0  0  0  0  0  0  0  0  0  0  0  0
    1.4631   -0.1900    0.0000 H   0  0  0  0  0  0  0  0  0  0  0  0
    1.6900   -1.0369    0.0000 H   0  0  0  0  0  0  0  0  0  0  0  0
    5.1350   -2.3100    0.0000 H   0  0  0  0  0  0  0  0  0  0  0  0
    3.7320   -3.1200    0.0000 H   0  0  0  0  0  0  0  0  0  0  0  0
  1  6  1  0  0  0  0
  1  7  1  0  0  0  0
  2  6  2  0  0  0  0
  3  4  1  0  0  0  0
  3  5  1  0  0  0  0
  3  6  1  0  0  0  0
  3 14  1  0  0  0  0
  4 15  1  0  0  0  0
  4 16  1  0  0  0  0
  4 17  1  0  0  0  0
  5 18  1  0  0  0  0
  5 19  1  0  0  0  0
  5 20  1  0  0  0  0
  7  8  1  0  0  0  0
  7  9  2  0  0  0  0
  8 10  2  0  0  0  0
  8 11  1  0  0  0  0
  9 12  1  0  0  0  0
  9 21  1  0  0  0  0
 10 13  1  0  0  0  0
 10 22  1  0  0  0  0
 11 23  1  0  0  0  0
 11 24  1  0  0  0  0
 11 25  1  0  0  0  0
 12 13  2  0  0  0  0
 12 26  1  0  0  0  0
 13 27  1  0  0  0  0
M  END
>  <PUBCHEM_COMPOUND_CID>
61954

>  <PUBCHEM_COMPOUND_CANONICALIZED>
1

>  <PUBCHEM_CACTVS_COMPLEXITY>
175

>  <PUBCHEM_CACTVS_HBOND_ACCEPTOR>
2

>  <PUBCHEM_CACTVS_HBOND_DONOR>
0

>  <PUBCHEM_CACTVS_ROTATABLE_BOND>
3

>  <PUBCHEM_CACTVS_SUBSKEYS>
AAADccBwMAAAAAAAAAAAAAAAAAAAAAAAAAAwAAAAAAAAAAABAAAAGgAAAAAADQSAmAAyDoAABACIAiDSCAACCAAgIAAIiAEGCIgMJiKEMRqCOiCkwBEIqAeAwCAOAAAAAAAIAAAAAAAAABAAAAAAAAAAAA==

>  <PUBCHEM_IUPAC_OPENEYE_NAME>
o-tolyl 2-methylpropanoate

>  <PUBCHEM_IUPAC_CAS_NAME>
2-methylpropanoic acid (2-methylphenyl) ester

>  <PUBCHEM_IUPAC_NAME_MARKUP>
(2-methylphenyl) 2-methylpropanoate

>  <PUBCHEM_IUPAC_NAME>
(2-methylphenyl) 2-methylpropanoate

>  <PUBCHEM_IUPAC_SYSTEMATIC_NAME>
(2-methylphenyl) 2-methylpropanoate

>  <PUBCHEM_IUPAC_TRADITIONAL_NAME>
2-methylpropionic acid o-tolyl ester

>  <PUBCHEM_IUPAC_INCHI>
InChI=1S/C11H14O2/c1-8(2)11(12)13-10-7-5-4-6-9(10)3/h4-8H,1-3H3

>  <PUBCHEM_IUPAC_INCHIKEY>
FDJBDZVTTXWIQM-UHFFFAOYSA-N

>  <PUBCHEM_XLOGP3>
2.7

>  <PUBCHEM_EXACT_MASS>
178.09938

>  <PUBCHEM_MOLECULAR_FORMULA>
C11H14O2

>  <PUBCHEM_MOLECULAR_WEIGHT>
178.23

>  <PUBCHEM_OPENEYE_CAN_SMILES>
CC1=CC=CC=C1OC(=O)C(C)C

>  <PUBCHEM_OPENEYE_ISO_SMILES>
CC1=CC=CC=C1OC(=O)C(C)C

>  <PUBCHEM_CACTVS_TPSA>
26.3

>  <PUBCHEM_MONOISOTOPIC_WEIGHT>
178.09938

>  <PUBCHEM_TOTAL_CHARGE>
0

>  <PUBCHEM_HEAVY_ATOM_COUNT>
13

>  <PUBCHEM_ATOM_DEF_STEREO_COUNT>
0

>  <PUBCHEM_ATOM_UDEF_STEREO_COUNT>
0

>  <PUBCHEM_BOND_DEF_STEREO_COUNT>
0

>  <PUBCHEM_BOND_UDEF_STEREO_COUNT>
0

>  <PUBCHEM_ISOTOPIC_ATOM_COUNT>
0

>  <PUBCHEM_COMPONENT_COUNT>
1

>  <PUBCHEM_CACTVS_TAUTO_COUNT>
-1

>  <PUBCHEM_COORDINATE_TYPE>
1
5
255

>  <PUBCHEM_BONDANNOTATIONS>
10  13  8
12  13  8
7  8  8
7  9  8
8  10  8
9  12  8

$$$$
