1616260
 OpenBabel05082101102D

 34 34  0  0  0  0  0  0  0  0999 V2000
    3.0000    1.0000    0.0000 O   0  0  0  0  0  0  0  0  0  0  0  0
    3.0000   -1.0000    0.0000 C   0  0  0  0  0  0  0  0  0  0  0  0
    3.0000   -2.0000    0.0000 C   0  0  0  0  0  0  0  0  0  0  0  0
    3.8660   -2.5000    0.0000 C   0  0  0  0  0  0  0  0  0  0  0  0
    3.8660   -0.5000    0.0000 C   0  0  0  0  0  0  0  0  0  0  0  0
    4.7320   -2.0000    0.0000 C   0  0  0  0  0  0  0  0  0  0  0  0
    4.7320   -1.0000    0.0000 C   0  0  0  0  0  0  0  0  0  0  0  0
    2.0000   -1.0000    0.0000 C   0  0  0  0  0  0  0  0  0  0  0  0
    2.5000   -0.1340    0.0000 C   0  0  0  0  0  0  0  0  0  0  0  0
    3.8660    0.5000    0.0000 C   0  0  0  0  0  0  0  0  0  0  0  0
    5.5981   -0.5000    0.0000 C   0  0  0  0  0  0  0  0  0  0  0  0
    4.7320    1.0000    0.0000 C   0  0  0  0  0  0  0  0  0  0  0  0
    4.7320    2.0000    0.0000 C   0  0  0  0  0  0  0  0  0  0  0  0
    3.8660    2.5000    0.0000 C   0  0  0  0  0  0  0  0  0  0  0  0
    2.3894   -1.8923    0.0000 H   0  0  0  0  0  0  0  0  0  0  0  0
    2.7880   -2.5826    0.0000 H   0  0  0  0  0  0  0  0  0  0  0  0
    3.4675   -2.9750    0.0000 H   0  0  0  0  0  0  0  0  0  0  0  0
    4.2646   -2.9750    0.0000 H   0  0  0  0  0  0  0  0  0  0  0  0
    4.9441   -2.5826    0.0000 H   0  0  0  0  0  0  0  0  0  0  0  0
    5.3426   -1.8923    0.0000 H   0  0  0  0  0  0  0  0  0  0  0  0
    2.0000   -0.3800    0.0000 H   0  0  0  0  0  0  0  0  0  0  0  0
    1.3800   -1.0000    0.0000 H   0  0  0  0  0  0  0  0  0  0  0  0
    2.0000   -1.6200    0.0000 H   0  0  0  0  0  0  0  0  0  0  0  0
    3.0369    0.1760    0.0000 H   0  0  0  0  0  0  0  0  0  0  0  0
    2.1900    0.4030    0.0000 H   0  0  0  0  0  0  0  0  0  0  0  0
    1.9631   -0.4440    0.0000 H   0  0  0  0  0  0  0  0  0  0  0  0
    5.9081   -1.0369    0.0000 H   0  0  0  0  0  0  0  0  0  0  0  0
    6.1350   -0.1900    0.0000 H   0  0  0  0  0  0  0  0  0  0  0  0
    5.2881    0.0369    0.0000 H   0  0  0  0  0  0  0  0  0  0  0  0
    5.2690    0.6900    0.0000 H   0  0  0  0  0  0  0  0  0  0  0  0
    5.2690    2.3100    0.0000 H   0  0  0  0  0  0  0  0  0  0  0  0
    4.1760    3.0369    0.0000 H   0  0  0  0  0  0  0  0  0  0  0  0
    3.3291    2.8100    0.0000 H   0  0  0  0  0  0  0  0  0  0  0  0
    3.5560    1.9631    0.0000 H   0  0  0  0  0  0  0  0  0  0  0  0
  1 10  2  0  0  0  0
  2  3  1  0  0  0  0
  2  5  1  0  0  0  0
  2  8  1  0  0  0  0
  2  9  1  0  0  0  0
  3  4  1  0  0  0  0
  3 15  1  0  0  0  0
  3 16  1  0  0  0  0
  4  6  1  0  0  0  0
  4 17  1  0  0  0  0
  4 18  1  0  0  0  0
  5  7  2  0  0  0  0
  5 10  1  0  0  0  0
  6  7  1  0  0  0  0
  6 19  1  0  0  0  0
  6 20  1  0  0  0  0
  7 11  1  0  0  0  0
  8 21  1  0  0  0  0
  8 22  1  0  0  0  0
  8 23  1  0  0  0  0
  9 24  1  0  0  0  0
  9 25  1  0  0  0  0
  9 26  1  0  0  0  0
 10 12  1  0  0  0  0
 11 27  1  0  0  0  0
 11 28  1  0  0  0  0
 11 29  1  0  0  0  0
 12 13  2  0  0  0  0
 12 30  1  0  0  0  0
 13 14  1  0  0  0  0
 13 31  1  0  0  0  0
 14 32  1  0  0  0  0
 14 33  1  0  0  0  0
 14 34  1  0  0  0  0
M  END
>  <PUBCHEM_COMPOUND_CID>
1616260

>  <PUBCHEM_COMPOUND_CANONICALIZED>
1

>  <PUBCHEM_CACTVS_COMPLEXITY>
292

>  <PUBCHEM_CACTVS_HBOND_ACCEPTOR>
1

>  <PUBCHEM_CACTVS_HBOND_DONOR>
0

>  <PUBCHEM_CACTVS_ROTATABLE_BOND>
2

>  <PUBCHEM_CACTVS_SUBSKEYS>
AAADceBwIAAAAAAAAAAAAAAAAAAAAAAAAAAgAAAAAAAAAAAAAAAAGgAAAAAADgSAgAACAAAAAACIAqBSAAAAAAAgAAAICAEAAEgAABIAAQAAAAAAgAAIAYMIiMCPAAAAAAAAAAAAAAAAAAAAAAAAAAAAAA==

>  <PUBCHEM_IUPAC_OPENEYE_NAME>
(Z)-1-(2,6,6-trimethylcyclohexen-1-yl)but-2-en-1-one

>  <PUBCHEM_IUPAC_CAS_NAME>
(Z)-1-(2,6,6-trimethyl-1-cyclohexenyl)-2-buten-1-one

>  <PUBCHEM_IUPAC_NAME_MARKUP>
(<I>Z</I>)-1-(2,6,6-trimethylcyclohexen-1-yl)but-2-en-1-one

>  <PUBCHEM_IUPAC_NAME>
(Z)-1-(2,6,6-trimethylcyclohexen-1-yl)but-2-en-1-one

>  <PUBCHEM_IUPAC_SYSTEMATIC_NAME>
(Z)-1-(2,6,6-trimethylcyclohexen-1-yl)but-2-en-1-one

>  <PUBCHEM_IUPAC_TRADITIONAL_NAME>
(Z)-1-(2,6,6-trimethylcyclohexen-1-yl)but-2-en-1-one

>  <PUBCHEM_IUPAC_INCHI>
InChI=1S/C13H20O/c1-5-7-11(14)12-10(2)8-6-9-13(12,3)4/h5,7H,6,8-9H2,1-4H3/b7-5-

>  <PUBCHEM_IUPAC_INCHIKEY>
BGTBFNDXYDYBEY-ALCCZGGFSA-N

>  <PUBCHEM_XLOGP3_AA>
3.5

>  <PUBCHEM_EXACT_MASS>
192.151415

>  <PUBCHEM_MOLECULAR_FORMULA>
C13H20O

>  <PUBCHEM_MOLECULAR_WEIGHT>
192.3

>  <PUBCHEM_OPENEYE_CAN_SMILES>
CC=CC(=O)C1=C(CCCC1(C)C)C

>  <PUBCHEM_OPENEYE_ISO_SMILES>
C/C=C\C(=O)C1=C(CCCC1(C)C)C

>  <PUBCHEM_CACTVS_TPSA>
17.1

>  <PUBCHEM_MONOISOTOPIC_WEIGHT>
192.151415

>  <PUBCHEM_TOTAL_CHARGE>
0

>  <PUBCHEM_HEAVY_ATOM_COUNT>
14

>  <PUBCHEM_ATOM_DEF_STEREO_COUNT>
0

>  <PUBCHEM_ATOM_UDEF_STEREO_COUNT>
0

>  <PUBCHEM_BOND_DEF_STEREO_COUNT>
1

>  <PUBCHEM_BOND_UDEF_STEREO_COUNT>
0

>  <PUBCHEM_ISOTOPIC_ATOM_COUNT>
0

>  <PUBCHEM_COMPONENT_COUNT>
1

>  <PUBCHEM_CACTVS_TAUTO_COUNT>
-1

>  <PUBCHEM_COORDINATE_TYPE>
1
5
255

$$$$
