24680
 OpenBabel05082101102D

 34 34  0  0  1  0  0  0  0  0999 V2000
    2.8660    1.5000    0.0000 O   0  0  0  0  0  0  0  0  0  0  0  0
    6.3301    0.5000    0.0000 C   0  0  0  0  0  0  0  0  0  0  0  0
    5.4641   -0.0000    0.0000 C   0  0  3  0  0  0  0  0  0  0  0  0
    7.1962   -0.0000    0.0000 C   0  0  0  0  0  0  0  0  0  0  0  0
    7.1962   -1.0000    0.0000 C   0  0  0  0  0  0  0  0  0  0  0  0
    5.4641   -1.0000    0.0000 C   0  0  0  0  0  0  0  0  0  0  0  0
    6.8301    1.3660    0.0000 C   0  0  0  0  0  0  0  0  0  0  0  0
    5.8301    1.3660    0.0000 C   0  0  0  0  0  0  0  0  0  0  0  0
    6.3301   -1.5000    0.0000 C   0  0  0  0  0  0  0  0  0  0  0  0
    4.5981    0.5000    0.0000 C   0  0  0  0  0  0  0  0  0  0  0  0
    4.5981   -1.5000    0.0000 C   0  0  0  0  0  0  0  0  0  0  0  0
    3.7320    0.0000    0.0000 C   0  0  0  0  0  0  0  0  0  0  0  0
    2.8660    0.5000    0.0000 C   0  0  0  0  0  0  0  0  0  0  0  0
    2.0000    0.0000    0.0000 C   0  0  0  0  0  0  0  0  0  0  0  0
    5.4641    0.6200    0.0000 H   0  0  0  0  0  0  0  0  0  0  0  0
    7.8067   -0.1077    0.0000 H   0  0  0  0  0  0  0  0  0  0  0  0
    7.4082    0.5826    0.0000 H   0  0  0  0  0  0  0  0  0  0  0  0
    7.4082   -1.5826    0.0000 H   0  0  0  0  0  0  0  0  0  0  0  0
    7.8067   -0.8923    0.0000 H   0  0  0  0  0  0  0  0  0  0  0  0
    7.3671    1.0560    0.0000 H   0  0  0  0  0  0  0  0  0  0  0  0
    7.1401    1.9030    0.0000 H   0  0  0  0  0  0  0  0  0  0  0  0
    6.2932    1.6760    0.0000 H   0  0  0  0  0  0  0  0  0  0  0  0
    6.3671    1.6760    0.0000 H   0  0  0  0  0  0  0  0  0  0  0  0
    5.5201    1.9030    0.0000 H   0  0  0  0  0  0  0  0  0  0  0  0
    5.2932    1.0560    0.0000 H   0  0  0  0  0  0  0  0  0  0  0  0
    6.3301   -2.1200    0.0000 H   0  0  0  0  0  0  0  0  0  0  0  0
    4.5981    1.1200    0.0000 H   0  0  0  0  0  0  0  0  0  0  0  0
    4.2881   -0.9631    0.0000 H   0  0  0  0  0  0  0  0  0  0  0  0
    4.0611   -1.8100    0.0000 H   0  0  0  0  0  0  0  0  0  0  0  0
    4.9081   -2.0369    0.0000 H   0  0  0  0  0  0  0  0  0  0  0  0
    3.7320   -0.6200    0.0000 H   0  0  0  0  0  0  0  0  0  0  0  0
    1.6900    0.5369    0.0000 H   0  0  0  0  0  0  0  0  0  0  0  0
    1.4631   -0.3100    0.0000 H   0  0  0  0  0  0  0  0  0  0  0  0
    2.3100   -0.5369    0.0000 H   0  0  0  0  0  0  0  0  0  0  0  0
  1 13  2  0  0  0  0
  2  3  1  0  0  0  0
  2  4  1  0  0  0  0
  2  7  1  0  0  0  0
  2  8  1  0  0  0  0
  3  6  1  0  0  0  0
  3 10  1  0  0  0  0
  3 15  1  0  0  0  0
  4  5  1  0  0  0  0
  4 16  1  0  0  0  0
  4 17  1  0  0  0  0
  5  9  1  0  0  0  0
  5 18  1  0  0  0  0
  5 19  1  0  0  0  0
  6  9  2  0  0  0  0
  6 11  1  0  0  0  0
  7 20  1  0  0  0  0
  7 21  1  0  0  0  0
  7 22  1  0  0  0  0
  8 23  1  0  0  0  0
  8 24  1  0  0  0  0
  8 25  1  0  0  0  0
  9 26  1  0  0  0  0
 10 12  2  3  0  0  0
 10 27  1  0  0  0  0
 11 28  1  0  0  0  0
 11 29  1  0  0  0  0
 11 30  1  0  0  0  0
 12 13  1  0  0  0  0
 12 31  1  0  0  0  0
 13 14  1  0  0  0  0
 14 32  1  0  0  0  0
 14 33  1  0  0  0  0
 14 34  1  0  0  0  0
M  END
>  <PUBCHEM_COMPOUND_CID>
24680

>  <PUBCHEM_COMPOUND_CANONICALIZED>
1

>  <PUBCHEM_CACTVS_COMPLEXITY>
282

>  <PUBCHEM_CACTVS_HBOND_ACCEPTOR>
1

>  <PUBCHEM_CACTVS_HBOND_DONOR>
0

>  <PUBCHEM_CACTVS_ROTATABLE_BOND>
2

>  <PUBCHEM_CACTVS_SUBSKEYS>
AAADceBwIAAAAAAAAAAAAAAAAAAAAAAAAAAgAAAAAAAAAAAAAAAAGgAAAAAADwSAgAACAAAAAACIAqBSAAAAAAAgAAAICAAAAEgAAAIAAQAAAAAAgAAIAYMAgAAPgAAAAAAAAAAAAAAAAAAAAAAAAAAAAA==

>  <PUBCHEM_IUPAC_OPENEYE_NAME>
4-(2,6,6-trimethylcyclohex-2-en-1-yl)but-3-en-2-one

>  <PUBCHEM_IUPAC_CAS_NAME>
4-(2,6,6-trimethyl-1-cyclohex-2-enyl)-3-buten-2-one

>  <PUBCHEM_IUPAC_NAME_MARKUP>
4-(2,6,6-trimethylcyclohex-2-en-1-yl)but-3-en-2-one

>  <PUBCHEM_IUPAC_NAME>
4-(2,6,6-trimethylcyclohex-2-en-1-yl)but-3-en-2-one

>  <PUBCHEM_IUPAC_SYSTEMATIC_NAME>
4-(2,6,6-trimethylcyclohex-2-en-1-yl)but-3-en-2-one

>  <PUBCHEM_IUPAC_TRADITIONAL_NAME>
4-(2,6,6-trimethylcyclohex-2-en-1-yl)but-3-en-2-one

>  <PUBCHEM_IUPAC_INCHI>
InChI=1S/C13H20O/c1-10-6-5-9-13(3,4)12(10)8-7-11(2)14/h6-8,12H,5,9H2,1-4H3

>  <PUBCHEM_IUPAC_INCHIKEY>
UZFLPKAIBPNNCA-UHFFFAOYSA-N

>  <PUBCHEM_XLOGP3_AA>
3

>  <PUBCHEM_EXACT_MASS>
192.151415

>  <PUBCHEM_MOLECULAR_FORMULA>
C13H20O

>  <PUBCHEM_MOLECULAR_WEIGHT>
192.3

>  <PUBCHEM_OPENEYE_CAN_SMILES>
CC1=CCCC(C1C=CC(=O)C)(C)C

>  <PUBCHEM_OPENEYE_ISO_SMILES>
CC1=CCCC(C1C=CC(=O)C)(C)C

>  <PUBCHEM_CACTVS_TPSA>
17.1

>  <PUBCHEM_MONOISOTOPIC_WEIGHT>
192.151415

>  <PUBCHEM_TOTAL_CHARGE>
0

>  <PUBCHEM_HEAVY_ATOM_COUNT>
14

>  <PUBCHEM_ATOM_DEF_STEREO_COUNT>
0

>  <PUBCHEM_ATOM_UDEF_STEREO_COUNT>
1

>  <PUBCHEM_BOND_DEF_STEREO_COUNT>
0

>  <PUBCHEM_BOND_UDEF_STEREO_COUNT>
1

>  <PUBCHEM_ISOTOPIC_ATOM_COUNT>
0

>  <PUBCHEM_COMPONENT_COUNT>
1

>  <PUBCHEM_CACTVS_TAUTO_COUNT>
-1

>  <PUBCHEM_COORDINATE_TYPE>
1
5
255

>  <PUBCHEM_BONDANNOTATIONS>
10  12  1
3  10  3

$$$$
