5363426
 OpenBabel05082101102D

 47 46  0  0  1  0  0  0  0  0999 V2000
   10.6603    0.1940    0.0000 O   0  0  0  0  0  0  0  0  0  0  0  0
   11.5263   -1.3060    0.0000 O   0  0  0  0  0  0  0  0  0  0  0  0
    9.7942   -0.3060    0.0000 C   0  0  3  0  0  0  0  0  0  0  0  0
    8.9282   -0.8060    0.0000 C   0  0  0  0  0  0  0  0  0  0  0  0
    8.0622   -0.3060    0.0000 C   0  0  0  0  0  0  0  0  0  0  0  0
   10.2942   -1.1720    0.0000 C   0  0  0  0  0  0  0  0  0  0  0  0
    7.1962   -0.8060    0.0000 C   0  0  0  0  0  0  0  0  0  0  0  0
    6.3301   -0.3060    0.0000 C   0  0  0  0  0  0  0  0  0  0  0  0
    9.2942    0.5600    0.0000 C   0  0  0  0  0  0  0  0  0  0  0  0
    5.4641   -0.8060    0.0000 C   0  0  0  0  0  0  0  0  0  0  0  0
    4.5981   -0.3060    0.0000 C   0  0  0  0  0  0  0  0  0  0  0  0
    6.3301    0.6940    0.0000 C   0  0  0  0  0  0  0  0  0  0  0  0
    3.7320   -0.8060    0.0000 C   0  0  0  0  0  0  0  0  0  0  0  0
   11.5263   -0.3060    0.0000 C   0  0  0  0  0  0  0  0  0  0  0  0
    9.7942    1.4260    0.0000 C   0  0  0  0  0  0  0  0  0  0  0  0
    2.8660   -0.3060    0.0000 C   0  0  0  0  0  0  0  0  0  0  0  0
   12.3923    0.1940    0.0000 C   0  0  0  0  0  0  0  0  0  0  0  0
    2.0000   -0.8060    0.0000 C   0  0  0  0  0  0  0  0  0  0  0  0
    2.8660    0.6940    0.0000 C   0  0  0  0  0  0  0  0  0  0  0  0
    8.5297   -1.2810    0.0000 H   0  0  0  0  0  0  0  0  0  0  0  0
    9.3267   -1.2810    0.0000 H   0  0  0  0  0  0  0  0  0  0  0  0
    8.4607    0.1689    0.0000 H   0  0  0  0  0  0  0  0  0  0  0  0
    7.6636    0.1689    0.0000 H   0  0  0  0  0  0  0  0  0  0  0  0
    9.7573   -1.4820    0.0000 H   0  0  0  0  0  0  0  0  0  0  0  0
   10.6042   -1.7090    0.0000 H   0  0  0  0  0  0  0  0  0  0  0  0
   10.8312   -0.8621    0.0000 H   0  0  0  0  0  0  0  0  0  0  0  0
    7.1962   -1.4260    0.0000 H   0  0  0  0  0  0  0  0  0  0  0  0
    5.0656   -1.2810    0.0000 H   0  0  0  0  0  0  0  0  0  0  0  0
    5.8626   -1.2810    0.0000 H   0  0  0  0  0  0  0  0  0  0  0  0
    8.6742    0.5600    0.0000 H   0  0  0  0  0  0  0  0  0  0  0  0
    4.9966    0.1689    0.0000 H   0  0  0  0  0  0  0  0  0  0  0  0
    4.1996    0.1689    0.0000 H   0  0  0  0  0  0  0  0  0  0  0  0
    6.9501    0.6940    0.0000 H   0  0  0  0  0  0  0  0  0  0  0  0
    6.3301    1.3140    0.0000 H   0  0  0  0  0  0  0  0  0  0  0  0
    5.7101    0.6940    0.0000 H   0  0  0  0  0  0  0  0  0  0  0  0
    3.7320   -1.4260    0.0000 H   0  0  0  0  0  0  0  0  0  0  0  0
   10.4142    1.4260    0.0000 H   0  0  0  0  0  0  0  0  0  0  0  0
    9.4842    1.9630    0.0000 H   0  0  0  0  0  0  0  0  0  0  0  0
   12.7023   -0.3430    0.0000 H   0  0  0  0  0  0  0  0  0  0  0  0
   12.9292    0.5040    0.0000 H   0  0  0  0  0  0  0  0  0  0  0  0
   12.0823    0.7309    0.0000 H   0  0  0  0  0  0  0  0  0  0  0  0
    1.6900   -0.2691    0.0000 H   0  0  0  0  0  0  0  0  0  0  0  0
    1.4631   -1.1160    0.0000 H   0  0  0  0  0  0  0  0  0  0  0  0
    2.3100   -1.3430    0.0000 H   0  0  0  0  0  0  0  0  0  0  0  0
    3.4860    0.6940    0.0000 H   0  0  0  0  0  0  0  0  0  0  0  0
    2.8660    1.3140    0.0000 H   0  0  0  0  0  0  0  0  0  0  0  0
    2.2460    0.6940    0.0000 H   0  0  0  0  0  0  0  0  0  0  0  0
  1  3  1  0  0  0  0
  1 14  1  0  0  0  0
  2 14  2  0  0  0  0
  3  4  1  0  0  0  0
  3  6  1  0  0  0  0
  3  9  1  0  0  0  0
  4  5  1  0  0  0  0
  4 20  1  0  0  0  0
  4 21  1  0  0  0  0
  5  7  1  0  0  0  0
  5 22  1  0  0  0  0
  5 23  1  0  0  0  0
  6 24  1  0  0  0  0
  6 25  1  0  0  0  0
  6 26  1  0  0  0  0
  7  8  2  0  0  0  0
  7 27  1  0  0  0  0
  8 10  1  0  0  0  0
  8 12  1  0  0  0  0
  9 15  2  0  0  0  0
  9 30  1  0  0  0  0
 10 11  1  0  0  0  0
 10 28  1  0  0  0  0
 10 29  1  0  0  0  0
 11 13  1  0  0  0  0
 11 31  1  0  0  0  0
 11 32  1  0  0  0  0
 12 33  1  0  0  0  0
 12 34  1  0  0  0  0
 12 35  1  0  0  0  0
 13 16  2  0  0  0  0
 13 36  1  0  0  0  0
 14 17  1  0  0  0  0
 15 37  1  0  0  0  0
 15 38  1  0  0  0  0
 16 18  1  0  0  0  0
 16 19  1  0  0  0  0
 17 39  1  0  0  0  0
 17 40  1  0  0  0  0
 17 41  1  0  0  0  0
 18 42  1  0  0  0  0
 18 43  1  0  0  0  0
 18 44  1  0  0  0  0
 19 45  1  0  0  0  0
 19 46  1  0  0  0  0
 19 47  1  0  0  0  0
M  END
>  <PUBCHEM_COMPOUND_CID>
5363426

>  <PUBCHEM_COMPOUND_CANONICALIZED>
1

>  <PUBCHEM_CACTVS_COMPLEXITY>
360

>  <PUBCHEM_CACTVS_HBOND_ACCEPTOR>
2

>  <PUBCHEM_CACTVS_HBOND_DONOR>
0

>  <PUBCHEM_CACTVS_ROTATABLE_BOND>
9

>  <PUBCHEM_CACTVS_SUBSKEYS>
AAADceB4MAAAAAAAAAAAAAAAAAAAAAAAAAAAAAAAAAAAAAAAAAAAGgAAAAAADESAgAACCAAABACIAiDSCAAAAAAgAAAICAAAAAgABAIAIQACAAAEgAAIIAIAAAAMAAAAAAAAAAAAAAAAAAAAAAAAAAAAAA==

>  <PUBCHEM_IUPAC_OPENEYE_NAME>
[(4E)-1,5,9-trimethyl-1-vinyl-deca-4,8-dienyl] acetate

>  <PUBCHEM_IUPAC_CAS_NAME>
acetic acid [(6E)-3,7,11-trimethyldodeca-1,6,10-trien-3-yl] ester

>  <PUBCHEM_IUPAC_NAME_MARKUP>
[(6<I>E</I>)-3,7,11-trimethyldodeca-1,6,10-trien-3-yl] acetate

>  <PUBCHEM_IUPAC_NAME>
[(6E)-3,7,11-trimethyldodeca-1,6,10-trien-3-yl] acetate

>  <PUBCHEM_IUPAC_SYSTEMATIC_NAME>
[(6E)-3,7,11-trimethyldodeca-1,6,10-trien-3-yl] ethanoate

>  <PUBCHEM_IUPAC_TRADITIONAL_NAME>
acetic acid [(4E)-1,5,9-trimethyl-1-vinyl-deca-4,8-dienyl] ester

>  <PUBCHEM_IUPAC_INCHI>
InChI=1S/C17H28O2/c1-7-17(6,19-16(5)18)13-9-12-15(4)11-8-10-14(2)3/h7,10,12H,1,8-9,11,13H2,2-6H3/b15-12+

>  <PUBCHEM_IUPAC_INCHIKEY>
PRNJXUQTUSFYLV-NTCAYCPXSA-N

>  <PUBCHEM_XLOGP3_AA>
5.2

>  <PUBCHEM_EXACT_MASS>
264.20893

>  <PUBCHEM_MOLECULAR_FORMULA>
C17H28O2

>  <PUBCHEM_MOLECULAR_WEIGHT>
264.4

>  <PUBCHEM_OPENEYE_CAN_SMILES>
CC(=CCCC(=CCCC(C)(C=C)OC(=O)C)C)C

>  <PUBCHEM_OPENEYE_ISO_SMILES>
CC(=CCC/C(=C/CCC(C)(C=C)OC(=O)C)/C)C

>  <PUBCHEM_CACTVS_TPSA>
26.3

>  <PUBCHEM_MONOISOTOPIC_WEIGHT>
264.20893

>  <PUBCHEM_TOTAL_CHARGE>
0

>  <PUBCHEM_HEAVY_ATOM_COUNT>
19

>  <PUBCHEM_ATOM_DEF_STEREO_COUNT>
0

>  <PUBCHEM_ATOM_UDEF_STEREO_COUNT>
1

>  <PUBCHEM_BOND_DEF_STEREO_COUNT>
1

>  <PUBCHEM_BOND_UDEF_STEREO_COUNT>
0

>  <PUBCHEM_ISOTOPIC_ATOM_COUNT>
0

>  <PUBCHEM_COMPONENT_COUNT>
1

>  <PUBCHEM_CACTVS_TAUTO_COUNT>
-1

>  <PUBCHEM_COORDINATE_TYPE>
1
5
255

>  <PUBCHEM_BONDANNOTATIONS>
3  6  3

$$$$
