23666456
 OpenBabel05082101102D

 12 10  0  0  1  0  0  0  0  0999 V2000
    2.0000   -0.2500    0.0000 Na  0  3  0  0  0  0  0  0  0  0  0  0
    5.4641   -0.2500    0.0000 O   0  0  0  0  0  0  0  0  0  0  0  0
    2.8660    0.2500    0.0000 O   0  5  0  0  0  0  0  0  0  0  0  0
    3.7320   -1.2500    0.0000 O   0  0  0  0  0  0  0  0  0  0  0  0
    4.5981    0.2500    0.0000 C   0  0  3  0  0  0  0  0  0  0  0  0
    4.5981    1.2500    0.0000 C   0  0  0  0  0  0  0  0  0  0  0  0
    3.7320   -0.2500    0.0000 C   0  0  0  0  0  0  0  0  0  0  0  0
    4.5981   -0.3700    0.0000 H   0  0  0  0  0  0  0  0  0  0  0  0
    5.2181    1.2500    0.0000 H   0  0  0  0  0  0  0  0  0  0  0  0
    4.5981    1.8700    0.0000 H   0  0  0  0  0  0  0  0  0  0  0  0
    3.9781    1.2500    0.0000 H   0  0  0  0  0  0  0  0  0  0  0  0
    6.0010    0.0600    0.0000 H   0  0  0  0  0  0  0  0  0  0  0  0
  2  5  1  0  0  0  0
  2 12  1  0  0  0  0
  3  7  1  0  0  0  0
  4  7  2  0  0  0  0
  5  6  1  0  0  0  0
  5  7  1  0  0  0  0
  5  8  1  0  0  0  0
  6  9  1  0  0  0  0
  6 10  1  0  0  0  0
  6 11  1  0  0  0  0
M  CHG  2   1   1   3  -1
M  END
>  <PUBCHEM_COMPOUND_CID>
23666456

>  <PUBCHEM_COMPOUND_CANONICALIZED>
1

>  <PUBCHEM_CACTVS_COMPLEXITY>
63.2

>  <PUBCHEM_CACTVS_HBOND_ACCEPTOR>
3

>  <PUBCHEM_CACTVS_HBOND_DONOR>
1

>  <PUBCHEM_CACTVS_ROTATABLE_BOND>
1

>  <PUBCHEM_CACTVS_SUBSKEYS>
AAADcYBAMCAAAAAAAAAAAAAAAAAAAAAAAAAAAAAAAAAAAAAAAAAAGgAACAAACBSggAICCAAAAgAIAACQCAIAAAAAAAAAAAFAAAABEAAAAAAAAAAAAAABAAAAAAAAAAAAAAAAAAAAAAAAAAAAAAAAAAAAAA==

>  <PUBCHEM_IUPAC_OPENEYE_NAME>
sodium;2-hydroxypropanoate

>  <PUBCHEM_IUPAC_CAS_NAME>
sodium;2-hydroxypropanoate

>  <PUBCHEM_IUPAC_NAME_MARKUP>
sodium;2-hydroxypropanoate

>  <PUBCHEM_IUPAC_NAME>
sodium;2-hydroxypropanoate

>  <PUBCHEM_IUPAC_SYSTEMATIC_NAME>
sodium;2-oxidanylpropanoate

>  <PUBCHEM_IUPAC_TRADITIONAL_NAME>
sodium;lactate

>  <PUBCHEM_IUPAC_INCHI>
InChI=1S/C3H6O3.Na/c1-2(4)3(5)6;/h2,4H,1H3,(H,5,6);/q;+1/p-1

>  <PUBCHEM_IUPAC_INCHIKEY>
NGSFWBMYFKHRBD-UHFFFAOYSA-M

>  <PUBCHEM_EXACT_MASS>
112.013638

>  <PUBCHEM_MOLECULAR_FORMULA>
C3H5NaO3

>  <PUBCHEM_MOLECULAR_WEIGHT>
112.06

>  <PUBCHEM_OPENEYE_CAN_SMILES>
CC(C(=O)[O-])O.[Na+]

>  <PUBCHEM_OPENEYE_ISO_SMILES>
CC(C(=O)[O-])O.[Na+]

>  <PUBCHEM_CACTVS_TPSA>
60.4

>  <PUBCHEM_MONOISOTOPIC_WEIGHT>
112.013638

>  <PUBCHEM_TOTAL_CHARGE>
0

>  <PUBCHEM_HEAVY_ATOM_COUNT>
7

>  <PUBCHEM_ATOM_DEF_STEREO_COUNT>
0

>  <PUBCHEM_ATOM_UDEF_STEREO_COUNT>
1

>  <PUBCHEM_BOND_DEF_STEREO_COUNT>
0

>  <PUBCHEM_BOND_UDEF_STEREO_COUNT>
0

>  <PUBCHEM_ISOTOPIC_ATOM_COUNT>
0

>  <PUBCHEM_COMPONENT_COUNT>
2

>  <PUBCHEM_CACTVS_TAUTO_COUNT>
-1

>  <PUBCHEM_NONSTANDARDBOND>
1  3  7

>  <PUBCHEM_COORDINATE_TYPE>
1
5
255

>  <PUBCHEM_BONDANNOTATIONS>
5  2  3

$$$$
