5282718
 OpenBabel05082101102D

 24 23  0  0  0  0  0  0  0  0999 V2000
    2.5369    0.0000    0.0000 O   0  0  0  0  0  0  0  0  0  0  0  0
    3.4030   -1.5000    0.0000 O   0  0  0  0  0  0  0  0  0  0  0  0
    5.1350   -0.5000    0.0000 C   0  0  0  0  0  0  0  0  0  0  0  0
    6.0010    0.0000    0.0000 C   0  0  0  0  0  0  0  0  0  0  0  0
    4.2690    0.0000    0.0000 C   0  0  0  0  0  0  0  0  0  0  0  0
    6.8671   -0.5000    0.0000 C   0  0  0  0  0  0  0  0  0  0  0  0
    7.7331   -0.0000    0.0000 C   0  0  0  0  0  0  0  0  0  0  0  0
    7.7331    1.0000    0.0000 C   0  0  0  0  0  0  0  0  0  0  0  0
    3.4030   -0.5000    0.0000 C   0  0  0  0  0  0  0  0  0  0  0  0
    8.5991    1.5000    0.0000 C   0  0  0  0  0  0  0  0  0  0  0  0
    4.7365   -0.9749    0.0000 H   0  0  0  0  0  0  0  0  0  0  0  0
    5.5335   -0.9749    0.0000 H   0  0  0  0  0  0  0  0  0  0  0  0
    6.3996    0.4749    0.0000 H   0  0  0  0  0  0  0  0  0  0  0  0
    5.6025    0.4749    0.0000 H   0  0  0  0  0  0  0  0  0  0  0  0
    4.6675    0.4749    0.0000 H   0  0  0  0  0  0  0  0  0  0  0  0
    3.8705    0.4749    0.0000 H   0  0  0  0  0  0  0  0  0  0  0  0
    6.8671   -1.1200    0.0000 H   0  0  0  0  0  0  0  0  0  0  0  0
    8.2700   -0.3100    0.0000 H   0  0  0  0  0  0  0  0  0  0  0  0
    7.5210    1.5826    0.0000 H   0  0  0  0  0  0  0  0  0  0  0  0
    7.1225    0.8923    0.0000 H   0  0  0  0  0  0  0  0  0  0  0  0
    8.9091    0.9631    0.0000 H   0  0  0  0  0  0  0  0  0  0  0  0
    9.1360    1.8100    0.0000 H   0  0  0  0  0  0  0  0  0  0  0  0
    8.2891    2.0369    0.0000 H   0  0  0  0  0  0  0  0  0  0  0  0
    2.0000   -0.3100    0.0000 H   0  0  0  0  0  0  0  0  0  0  0  0
  1  9  1  0  0  0  0
  1 24  1  0  0  0  0
  2  9  2  0  0  0  0
  3  4  1  0  0  0  0
  3  5  1  0  0  0  0
  3 11  1  0  0  0  0
  3 12  1  0  0  0  0
  4  6  1  0  0  0  0
  4 13  1  0  0  0  0
  4 14  1  0  0  0  0
  5  9  1  0  0  0  0
  5 15  1  0  0  0  0
  5 16  1  0  0  0  0
  6  7  2  0  0  0  0
  6 17  1  0  0  0  0
  7  8  1  0  0  0  0
  7 18  1  0  0  0  0
  8 10  1  0  0  0  0
  8 19  1  0  0  0  0
  8 20  1  0  0  0  0
 10 21  1  0  0  0  0
 10 22  1  0  0  0  0
 10 23  1  0  0  0  0
M  END
>  <PUBCHEM_COMPOUND_CID>
5282718

>  <PUBCHEM_COMPOUND_CANONICALIZED>
1

>  <PUBCHEM_CACTVS_COMPLEXITY>
116

>  <PUBCHEM_CACTVS_HBOND_ACCEPTOR>
2

>  <PUBCHEM_CACTVS_HBOND_DONOR>
1

>  <PUBCHEM_CACTVS_ROTATABLE_BOND>
5

>  <PUBCHEM_CACTVS_SUBSKEYS>
AAADccBwMAAAAAAAAAAAAAAAAAAAAAAAAAAAAAAAAAAAAAAAAAAAGgAACAAACACAgAACCAAAAgCIACDSCAAAAAAgAAAICAEAAAgAABIAAQAAQAAEgAAIAAKIAAAAAAAAAAAAAAAAAAAAAAAAAAAAAAAAAA==

>  <PUBCHEM_IUPAC_OPENEYE_NAME>
(Z)-oct-5-enoic acid

>  <PUBCHEM_IUPAC_CAS_NAME>
(Z)-5-octenoic acid

>  <PUBCHEM_IUPAC_NAME_MARKUP>
(<I>Z</I>)-oct-5-enoic acid

>  <PUBCHEM_IUPAC_NAME>
(Z)-oct-5-enoic acid

>  <PUBCHEM_IUPAC_SYSTEMATIC_NAME>
(Z)-oct-5-enoic acid

>  <PUBCHEM_IUPAC_TRADITIONAL_NAME>
(Z)-oct-5-enoic acid

>  <PUBCHEM_IUPAC_INCHI>
InChI=1S/C8H14O2/c1-2-3-4-5-6-7-8(9)10/h3-4H,2,5-7H2,1H3,(H,9,10)/b4-3-

>  <PUBCHEM_IUPAC_INCHIKEY>
RRGOKSYVAZDNKR-ARJAWSKDSA-N

>  <PUBCHEM_XLOGP3_AA>
1.9

>  <PUBCHEM_EXACT_MASS>
142.09938

>  <PUBCHEM_MOLECULAR_FORMULA>
C8H14O2

>  <PUBCHEM_MOLECULAR_WEIGHT>
142.2

>  <PUBCHEM_OPENEYE_CAN_SMILES>
CCC=CCCCC(=O)O

>  <PUBCHEM_OPENEYE_ISO_SMILES>
CC/C=C\CCCC(=O)O

>  <PUBCHEM_CACTVS_TPSA>
37.3

>  <PUBCHEM_MONOISOTOPIC_WEIGHT>
142.09938

>  <PUBCHEM_TOTAL_CHARGE>
0

>  <PUBCHEM_HEAVY_ATOM_COUNT>
10

>  <PUBCHEM_ATOM_DEF_STEREO_COUNT>
0

>  <PUBCHEM_ATOM_UDEF_STEREO_COUNT>
0

>  <PUBCHEM_BOND_DEF_STEREO_COUNT>
1

>  <PUBCHEM_BOND_UDEF_STEREO_COUNT>
0

>  <PUBCHEM_ISOTOPIC_ATOM_COUNT>
0

>  <PUBCHEM_COMPONENT_COUNT>
1

>  <PUBCHEM_CACTVS_TAUTO_COUNT>
-1

>  <PUBCHEM_COORDINATE_TYPE>
1
5
255

$$$$
