133082061
 OpenBabel05082101102D

 33 31  0  0  0  0  0  0  0  0999 V2000
    3.1350    0.3100    0.0000 O   0  0  0  0  0  0  0  0  0  0  0  0
    4.8671    1.3100    0.0000 O   0  0  0  0  0  0  0  0  0  0  0  0
    1.4030    1.3100    0.0000 O   0  0  0  0  0  0  0  0  0  0  0  0
    3.1350    4.2850    0.0000 O   0  0  0  0  0  0  0  0  0  0  0  0
    5.7331    5.7850    0.0000 O   0  0  0  0  0  0  0  0  0  0  0  0
    4.8671    4.2850    0.0000 O   0  0  0  0  0  0  0  0  0  0  0  0
    2.2690    5.7850    0.0000 C   0  0  0  0  0  0  0  0  0  0  0  0
    1.4030    5.2850    0.0000 C   0  0  0  0  0  0  0  0  0  0  0  0
    3.1350    1.3100    0.0000 C   0  0  0  0  0  0  0  0  0  0  0  0
    3.1350    5.2850    0.0000 C   0  0  0  0  0  0  0  0  0  0  0  0
    0.5369    5.7850    0.0000 C   0  0  0  0  0  0  0  0  0  0  0  0
    4.0010    1.8100    0.0000 C   0  0  0  0  0  0  0  0  0  0  0  0
    2.2690    1.8100    0.0000 C   0  0  0  0  0  0  0  0  0  0  0  0
    4.0010    5.7850    0.0000 C   0  0  0  0  0  0  0  0  0  0  0  0
    4.8671    5.2850    0.0000 C   0  0  0  0  0  0  0  0  0  0  0  0
    2.6675    6.2599    0.0000 H   0  0  0  0  0  0  0  0  0  0  0  0
    1.8705    6.2599    0.0000 H   0  0  0  0  0  0  0  0  0  0  0  0
    1.0044    4.8100    0.0000 H   0  0  0  0  0  0  0  0  0  0  0  0
    1.8015    4.8100    0.0000 H   0  0  0  0  0  0  0  0  0  0  0  0
    3.6720    1.0000    0.0000 H   0  0  0  0  0  0  0  0  0  0  0  0
    4.3996    2.2849    0.0000 H   0  0  0  0  0  0  0  0  0  0  0  0
    3.6025    2.2849    0.0000 H   0  0  0  0  0  0  0  0  0  0  0  0
    2.6675    2.2849    0.0000 H   0  0  0  0  0  0  0  0  0  0  0  0
    1.8705    2.2849    0.0000 H   0  0  0  0  0  0  0  0  0  0  0  0
    0.8469    6.3219    0.0000 H   0  0  0  0  0  0  0  0  0  0  0  0
    0.0000    6.0950    0.0000 H   0  0  0  0  0  0  0  0  0  0  0  0
    0.2269    5.2480    0.0000 H   0  0  0  0  0  0  0  0  0  0  0  0
    4.3996    6.2599    0.0000 H   0  0  0  0  0  0  0  0  0  0  0  0
    3.6025    6.2599    0.0000 H   0  0  0  0  0  0  0  0  0  0  0  0
    2.5981    0.0000    0.0000 H   0  0  0  0  0  0  0  0  0  0  0  0
    5.4040    1.6200    0.0000 H   0  0  0  0  0  0  0  0  0  0  0  0
    0.8660    1.6200    0.0000 H   0  0  0  0  0  0  0  0  0  0  0  0
    6.2700    5.4750    0.0000 H   0  0  0  0  0  0  0  0  0  0  0  0
  1  9  1  0  0  0  0
  1 30  1  0  0  0  0
  2 12  1  0  0  0  0
  2 31  1  0  0  0  0
  3 13  1  0  0  0  0
  3 32  1  0  0  0  0
  4 10  2  0  0  0  0
  5 15  1  0  0  0  0
  5 33  1  0  0  0  0
  6 15  2  0  0  0  0
  7  8  1  0  0  0  0
  7 10  1  0  0  0  0
  7 16  1  0  0  0  0
  7 17  1  0  0  0  0
  8 11  1  0  0  0  0
  8 18  1  0  0  0  0
  8 19  1  0  0  0  0
  9 12  1  0  0  0  0
  9 13  1  0  0  0  0
  9 20  1  0  0  0  0
 10 14  1  0  0  0  0
 11 25  1  0  0  0  0
 11 26  1  0  0  0  0
 11 27  1  0  0  0  0
 12 21  1  0  0  0  0
 12 22  1  0  0  0  0
 13 23  1  0  0  0  0
 13 24  1  0  0  0  0
 14 15  1  0  0  0  0
 14 28  1  0  0  0  0
 14 29  1  0  0  0  0
M  END
>  <PUBCHEM_COMPOUND_CID>
133082061

>  <PUBCHEM_COMPOUND_CANONICALIZED>
1

>  <PUBCHEM_CACTVS_COMPLEXITY>
143

>  <PUBCHEM_CACTVS_HBOND_ACCEPTOR>
6

>  <PUBCHEM_CACTVS_HBOND_DONOR>
4

>  <PUBCHEM_CACTVS_ROTATABLE_BOND>
6

>  <PUBCHEM_CACTVS_SUBSKEYS>
AAADceBwOAAAAAAAAAAAAAAAAAAAAAAAAAAAAAAAAAAAAAAAAAAAGgAACAAACBSggAICCAAAAgAIAICQCAAAAAAAAAAAAAEAAAABEBYIAAAAQAAFIAABAAGISAAAAAAAAAAAAAAAAAAAAAAAAAAAAAAAAA==

>  <PUBCHEM_IUPAC_OPENEYE_NAME>
glycerol;3-oxohexanoic acid

>  <PUBCHEM_IUPAC_CAS_NAME>
3-oxohexanoic acid;propane-1,2,3-triol

>  <PUBCHEM_IUPAC_NAME_MARKUP>
3-oxohexanoic acid;propane-1,2,3-triol

>  <PUBCHEM_IUPAC_NAME>
3-oxohexanoic acid;propane-1,2,3-triol

>  <PUBCHEM_IUPAC_SYSTEMATIC_NAME>
3-oxidanylidenehexanoic acid;propane-1,2,3-triol

>  <PUBCHEM_IUPAC_TRADITIONAL_NAME>
glycerol;3-ketohexanoic acid

>  <PUBCHEM_IUPAC_INCHI>
InChI=1S/C6H10O3.C3H8O3/c1-2-3-5(7)4-6(8)9;4-1-3(6)2-5/h2-4H2,1H3,(H,8,9);3-6H,1-2H2

>  <PUBCHEM_IUPAC_INCHIKEY>
GPNRMAGWMDIOKQ-UHFFFAOYSA-N

>  <PUBCHEM_EXACT_MASS>
222.110338

>  <PUBCHEM_MOLECULAR_FORMULA>
C9H18O6

>  <PUBCHEM_MOLECULAR_WEIGHT>
222.24

>  <PUBCHEM_OPENEYE_CAN_SMILES>
CCCC(=O)CC(=O)O.C(C(CO)O)O

>  <PUBCHEM_OPENEYE_ISO_SMILES>
CCCC(=O)CC(=O)O.C(C(CO)O)O

>  <PUBCHEM_CACTVS_TPSA>
115

>  <PUBCHEM_MONOISOTOPIC_WEIGHT>
222.110338

>  <PUBCHEM_TOTAL_CHARGE>
0

>  <PUBCHEM_HEAVY_ATOM_COUNT>
15

>  <PUBCHEM_ATOM_DEF_STEREO_COUNT>
0

>  <PUBCHEM_ATOM_UDEF_STEREO_COUNT>
0

>  <PUBCHEM_BOND_DEF_STEREO_COUNT>
0

>  <PUBCHEM_BOND_UDEF_STEREO_COUNT>
0

>  <PUBCHEM_ISOTOPIC_ATOM_COUNT>
0

>  <PUBCHEM_COMPONENT_COUNT>
2

>  <PUBCHEM_CACTVS_TAUTO_COUNT>
-1

>  <PUBCHEM_COORDINATE_TYPE>
1
5
255

$$$$
