643790
 OpenBabel05082101102D

 14 13  0  0  0  0  0  0  0  0999 V2000
    6.0010    1.0000    0.0000 O   0  0  0  0  0  0  0  0  0  0  0  0
    2.5369   -1.0000    0.0000 O   0  0  0  0  0  0  0  0  0  0  0  0
    5.1350   -0.5000    0.0000 C   0  0  0  0  0  0  0  0  0  0  0  0
    4.2690   -1.0000    0.0000 C   0  0  0  0  0  0  0  0  0  0  0  0
    5.1350    0.5000    0.0000 C   0  0  0  0  0  0  0  0  0  0  0  0
    3.4030   -0.5000    0.0000 C   0  0  0  0  0  0  0  0  0  0  0  0
    5.6720   -0.8100    0.0000 H   0  0  0  0  0  0  0  0  0  0  0  0
    4.2690   -1.6200    0.0000 H   0  0  0  0  0  0  0  0  0  0  0  0
    4.9230    1.0826    0.0000 H   0  0  0  0  0  0  0  0  0  0  0  0
    4.5244    0.3923    0.0000 H   0  0  0  0  0  0  0  0  0  0  0  0
    3.8015   -0.0251    0.0000 H   0  0  0  0  0  0  0  0  0  0  0  0
    3.0044   -0.0251    0.0000 H   0  0  0  0  0  0  0  0  0  0  0  0
    6.0010    1.6200    0.0000 H   0  0  0  0  0  0  0  0  0  0  0  0
    2.0000   -0.6900    0.0000 H   0  0  0  0  0  0  0  0  0  0  0  0
  1  5  1  0  0  0  0
  1 13  1  0  0  0  0
  2  6  1  0  0  0  0
  2 14  1  0  0  0  0
  3  4  2  0  0  0  0
  3  5  1  0  0  0  0
  3  7  1  0  0  0  0
  4  6  1  0  0  0  0
  4  8  1  0  0  0  0
  5  9  1  0  0  0  0
  5 10  1  0  0  0  0
  6 11  1  0  0  0  0
  6 12  1  0  0  0  0
M  END
>  <PUBCHEM_COMPOUND_CID>
643790

>  <PUBCHEM_COMPOUND_CANONICALIZED>
1

>  <PUBCHEM_CACTVS_COMPLEXITY>
34.8

>  <PUBCHEM_CACTVS_HBOND_ACCEPTOR>
2

>  <PUBCHEM_CACTVS_HBOND_DONOR>
2

>  <PUBCHEM_CACTVS_ROTATABLE_BOND>
2

>  <PUBCHEM_CACTVS_SUBSKEYS>
AAADccBgMAAAAAAAAAAAAAAAAAAAAAAAAAAAAAAAAAAAAAAAAAAAGgAACAAACACggAIAAAAAAgCAACBCAAAAAAAAAAAICAAAAAAAFAAAAQAAEAAAAAAAEAAAAAAAAAAAAAAAAAAAAAAAAAAAAAAAAAAAAA==

>  <PUBCHEM_IUPAC_OPENEYE_NAME>
(Z)-but-2-ene-1,4-diol

>  <PUBCHEM_IUPAC_CAS_NAME>
(Z)-2-butene-1,4-diol

>  <PUBCHEM_IUPAC_NAME_MARKUP>
(<I>Z</I>)-but-2-ene-1,4-diol

>  <PUBCHEM_IUPAC_NAME>
(Z)-but-2-ene-1,4-diol

>  <PUBCHEM_IUPAC_SYSTEMATIC_NAME>
(Z)-but-2-ene-1,4-diol

>  <PUBCHEM_IUPAC_TRADITIONAL_NAME>
(Z)-but-2-ene-1,4-diol

>  <PUBCHEM_IUPAC_INCHI>
InChI=1S/C4H8O2/c5-3-1-2-4-6/h1-2,5-6H,3-4H2/b2-1-

>  <PUBCHEM_IUPAC_INCHIKEY>
ORTVZLZNOYNASJ-UPHRSURJSA-N

>  <PUBCHEM_XLOGP3>
-0.8

>  <PUBCHEM_EXACT_MASS>
88.052429

>  <PUBCHEM_MOLECULAR_FORMULA>
C4H8O2

>  <PUBCHEM_MOLECULAR_WEIGHT>
88.11

>  <PUBCHEM_OPENEYE_CAN_SMILES>
C(C=CCO)O

>  <PUBCHEM_OPENEYE_ISO_SMILES>
C(/C=C\CO)O

>  <PUBCHEM_CACTVS_TPSA>
40.5

>  <PUBCHEM_MONOISOTOPIC_WEIGHT>
88.052429

>  <PUBCHEM_TOTAL_CHARGE>
0

>  <PUBCHEM_HEAVY_ATOM_COUNT>
6

>  <PUBCHEM_ATOM_DEF_STEREO_COUNT>
0

>  <PUBCHEM_ATOM_UDEF_STEREO_COUNT>
0

>  <PUBCHEM_BOND_DEF_STEREO_COUNT>
1

>  <PUBCHEM_BOND_UDEF_STEREO_COUNT>
0

>  <PUBCHEM_ISOTOPIC_ATOM_COUNT>
0

>  <PUBCHEM_COMPONENT_COUNT>
1

>  <PUBCHEM_CACTVS_TAUTO_COUNT>
-1

>  <PUBCHEM_COORDINATE_TYPE>
1
5
255

$$$$
