14700088
 OpenBabel05082101102D

 19 17  0  0  0  0  0  0  0  0999 V2000
    3.0000    1.4050    0.0000 As  0  0  0  0  0  0  0  0  0  0  0  0
    3.8660    2.9050    0.0000 Na  0  3  0  0  0  0  0  0  0  0  0  0
    4.5000    2.2710    0.0000 Na  0  3  0  0  0  0  0  0  0  0  0  0
    3.0000    2.4050    0.0000 O   0  5  0  0  0  0  0  0  0  0  0  0
    4.0000    1.4050    0.0000 O   0  5  0  0  0  0  0  0  0  0  0  0
    2.0000    1.4050    0.0000 O   0  0  0  0  0  0  0  0  0  0  0  0
    3.0000   -2.5950    0.0000 N   0  0  0  0  0  0  0  0  0  0  0  0
    3.0000    0.4050    0.0000 C   0  0  0  0  0  0  0  0  0  0  0  0
    2.1340   -0.0950    0.0000 C   0  0  0  0  0  0  0  0  0  0  0  0
    3.8660   -0.0950    0.0000 C   0  0  0  0  0  0  0  0  0  0  0  0
    3.0000   -1.5950    0.0000 C   0  0  0  0  0  0  0  0  0  0  0  0
    2.1340   -1.0950    0.0000 C   0  0  0  0  0  0  0  0  0  0  0  0
    3.8660   -1.0950    0.0000 C   0  0  0  0  0  0  0  0  0  0  0  0
    1.5970    0.2150    0.0000 H   0  0  0  0  0  0  0  0  0  0  0  0
    4.4030    0.2150    0.0000 H   0  0  0  0  0  0  0  0  0  0  0  0
    1.5970   -1.4050    0.0000 H   0  0  0  0  0  0  0  0  0  0  0  0
    4.4030   -1.4050    0.0000 H   0  0  0  0  0  0  0  0  0  0  0  0
    2.4631   -2.9050    0.0000 H   0  0  0  0  0  0  0  0  0  0  0  0
    3.5369   -2.9050    0.0000 H   0  0  0  0  0  0  0  0  0  0  0  0
  1  4  1  0  0  0  0
  1  5  1  0  0  0  0
  1  6  2  0  0  0  0
  1  8  1  0  0  0  0
  7 11  1  0  0  0  0
  7 18  1  0  0  0  0
  7 19  1  0  0  0  0
  8  9  2  0  0  0  0
  8 10  1  0  0  0  0
  9 12  1  0  0  0  0
  9 14  1  0  0  0  0
 10 13  2  0  0  0  0
 10 15  1  0  0  0  0
 11 12  2  0  0  0  0
 11 13  1  0  0  0  0
 12 16  1  0  0  0  0
 13 17  1  0  0  0  0
M  CHG  4   2   1   3   1   4  -1   5  -1
M  END
>  <PUBCHEM_COMPOUND_CID>
14700088

>  <PUBCHEM_COMPOUND_CANONICALIZED>
1

>  <PUBCHEM_CACTVS_COMPLEXITY>
159

>  <PUBCHEM_CACTVS_HBOND_ACCEPTOR>
4

>  <PUBCHEM_CACTVS_HBOND_DONOR>
1

>  <PUBCHEM_CACTVS_ROTATABLE_BOND>
0

>  <PUBCHEM_CACTVS_SUBSKEYS>
AAADcYBiMDAAAAAAQAAAAAAAAAAAAAAAAAAwAAAAAAAAAAABAAAAHAEQAAAACAiBEAAwwIBAAACAACRCQACCAAAgAgAIjAAAZIgIICKAkZGAIBBgkAAIyAcQAAAAAAAAAAAAAAAAAAAAAAAAAAAAAAAAAA==

>  <PUBCHEM_IUPAC_OPENEYE_NAME>
disodium;4-arsonatoaniline

>  <PUBCHEM_IUPAC_CAS_NAME>
disodium;4-arsonatoaniline

>  <PUBCHEM_IUPAC_NAME_MARKUP>
disodium;4-arsonatoaniline

>  <PUBCHEM_IUPAC_NAME>
disodium;4-arsonatoaniline

>  <PUBCHEM_IUPAC_SYSTEMATIC_NAME>
disodium;4-arsonatoaniline

>  <PUBCHEM_IUPAC_TRADITIONAL_NAME>
disodium;(4-arsonatophenyl)amine

>  <PUBCHEM_IUPAC_INCHI>
InChI=1S/C6H8AsNO3.2Na/c8-6-3-1-5(2-4-6)7(9,10)11;;/h1-4H,8H2,(H2,9,10,11);;/q;2*+1/p-2

>  <PUBCHEM_IUPAC_INCHIKEY>
KTNGTQHYNOLPSF-UHFFFAOYSA-L

>  <PUBCHEM_EXACT_MASS>
260.935901

>  <PUBCHEM_MOLECULAR_FORMULA>
C6H6AsNNa2O3

>  <PUBCHEM_MOLECULAR_WEIGHT>
261.02

>  <PUBCHEM_OPENEYE_CAN_SMILES>
C1=CC(=CC=C1N)[As](=O)([O-])[O-].[Na+].[Na+]

>  <PUBCHEM_OPENEYE_ISO_SMILES>
C1=CC(=CC=C1N)[As](=O)([O-])[O-].[Na+].[Na+]

>  <PUBCHEM_CACTVS_TPSA>
89.2

>  <PUBCHEM_MONOISOTOPIC_WEIGHT>
260.935901

>  <PUBCHEM_TOTAL_CHARGE>
0

>  <PUBCHEM_HEAVY_ATOM_COUNT>
13

>  <PUBCHEM_ATOM_DEF_STEREO_COUNT>
0

>  <PUBCHEM_ATOM_UDEF_STEREO_COUNT>
0

>  <PUBCHEM_BOND_DEF_STEREO_COUNT>
0

>  <PUBCHEM_BOND_UDEF_STEREO_COUNT>
0

>  <PUBCHEM_ISOTOPIC_ATOM_COUNT>
0

>  <PUBCHEM_COMPONENT_COUNT>
3

>  <PUBCHEM_CACTVS_TAUTO_COUNT>
-1

>  <PUBCHEM_COORDINATE_TYPE>
1
5
255

>  <PUBCHEM_BONDANNOTATIONS>
10  13  8
11  12  8
11  13  8
8  10  8
8  9  8
9  12  8

$$$$
