521873
 OpenBabel05082101102D

 16 16  0  0  0  0  0  0  0  0999 V2000
    6.2633    0.1785    0.0000 S   0  0  0  0  0  0  0  0  0  0  0  0
    3.7601   -0.7694    0.0000 O   0  0  0  0  0  0  0  0  0  0  0  0
    4.5691   -0.1816    0.0000 C   0  0  0  0  0  0  0  0  0  0  0  0
    2.9511   -0.1816    0.0000 C   0  0  0  0  0  0  0  0  0  0  0  0
    4.2601    0.7694    0.0000 C   0  0  0  0  0  0  0  0  0  0  0  0
    3.2601    0.7694    0.0000 C   0  0  0  0  0  0  0  0  0  0  0  0
    5.5202   -0.4907    0.0000 C   0  0  0  0  0  0  0  0  0  0  0  0
    2.0000   -0.4907    0.0000 C   0  0  0  0  0  0  0  0  0  0  0  0
    4.6245    1.2710    0.0000 H   0  0  0  0  0  0  0  0  0  0  0  0
    2.8956    1.2710    0.0000 H   0  0  0  0  0  0  0  0  0  0  0  0
    5.2291   -1.0381    0.0000 H   0  0  0  0  0  0  0  0  0  0  0  0
    6.0087   -0.8724    0.0000 H   0  0  0  0  0  0  0  0  0  0  0  0
    1.8084    0.0990    0.0000 H   0  0  0  0  0  0  0  0  0  0  0  0
    1.4103   -0.6822    0.0000 H   0  0  0  0  0  0  0  0  0  0  0  0
    2.1916   -1.0803    0.0000 H   0  0  0  0  0  0  0  0  0  0  0  0
    6.8530   -0.0131    0.0000 H   0  0  0  0  0  0  0  0  0  0  0  0
  1  7  1  0  0  0  0
  1 16  1  0  0  0  0
  2  3  1  0  0  0  0
  2  4  1  0  0  0  0
  3  5  2  0  0  0  0
  3  7  1  0  0  0  0
  4  6  2  0  0  0  0
  4  8  1  0  0  0  0
  5  6  1  0  0  0  0
  5  9  1  0  0  0  0
  6 10  1  0  0  0  0
  7 11  1  0  0  0  0
  7 12  1  0  0  0  0
  8 13  1  0  0  0  0
  8 14  1  0  0  0  0
  8 15  1  0  0  0  0
M  END
>  <PUBCHEM_COMPOUND_CID>
521873

>  <PUBCHEM_COMPOUND_CANONICALIZED>
1

>  <PUBCHEM_CACTVS_COMPLEXITY>
74.9

>  <PUBCHEM_CACTVS_HBOND_ACCEPTOR>
2

>  <PUBCHEM_CACTVS_HBOND_DONOR>
1

>  <PUBCHEM_CACTVS_ROTATABLE_BOND>
1

>  <PUBCHEM_CACTVS_SUBSKEYS>
AAADccBgIABAAAAAAAAAAAAAAAAAASAAAAAAAAAAAAAAAAABgAAAGgQAAAAACASE0ACyBIAABESIAKBSAAACCAAkIAAIiAEGCMgMJjKENRqCGSCkwBEIqYeIAAAAAAAAAAAAAAAAAAAAAAAAAAAAAAAAAA==

>  <PUBCHEM_IUPAC_OPENEYE_NAME>
(5-methyl-2-furyl)methanethiol

>  <PUBCHEM_IUPAC_CAS_NAME>
(5-methyl-2-furanyl)methanethiol

>  <PUBCHEM_IUPAC_NAME_MARKUP>
(5-methylfuran-2-yl)methanethiol

>  <PUBCHEM_IUPAC_NAME>
(5-methylfuran-2-yl)methanethiol

>  <PUBCHEM_IUPAC_SYSTEMATIC_NAME>
(5-methylfuran-2-yl)methanethiol

>  <PUBCHEM_IUPAC_TRADITIONAL_NAME>
(5-methyl-2-furyl)methanethiol

>  <PUBCHEM_IUPAC_INCHI>
InChI=1S/C6H8OS/c1-5-2-3-6(4-8)7-5/h2-3,8H,4H2,1H3

>  <PUBCHEM_IUPAC_INCHIKEY>
MGLMZOFGBDYNMH-UHFFFAOYSA-N

>  <PUBCHEM_XLOGP3_AA>
1.5

>  <PUBCHEM_EXACT_MASS>
128.029586

>  <PUBCHEM_MOLECULAR_FORMULA>
C6H8OS

>  <PUBCHEM_MOLECULAR_WEIGHT>
128.19

>  <PUBCHEM_OPENEYE_CAN_SMILES>
CC1=CC=C(O1)CS

>  <PUBCHEM_OPENEYE_ISO_SMILES>
CC1=CC=C(O1)CS

>  <PUBCHEM_CACTVS_TPSA>
14.1

>  <PUBCHEM_MONOISOTOPIC_WEIGHT>
128.029586

>  <PUBCHEM_TOTAL_CHARGE>
0

>  <PUBCHEM_HEAVY_ATOM_COUNT>
8

>  <PUBCHEM_ATOM_DEF_STEREO_COUNT>
0

>  <PUBCHEM_ATOM_UDEF_STEREO_COUNT>
0

>  <PUBCHEM_BOND_DEF_STEREO_COUNT>
0

>  <PUBCHEM_BOND_UDEF_STEREO_COUNT>
0

>  <PUBCHEM_ISOTOPIC_ATOM_COUNT>
0

>  <PUBCHEM_COMPONENT_COUNT>
1

>  <PUBCHEM_CACTVS_TAUTO_COUNT>
-1

>  <PUBCHEM_COORDINATE_TYPE>
1
5
255

>  <PUBCHEM_BONDANNOTATIONS>
2  3  8
2  4  8
3  5  8
4  6  8
5  6  8

$$$$
