72
 OpenBabel05082101303D

 17 17  0  0  0  0  0  0  0  0999 V2000
   -2.1493    1.9146   -0.0009 O   0  0  0  0  0  0  0  0  0  0  0  0
   -3.2140   -0.6523   -0.0173 O   0  0  0  0  0  0  0  0  0  0  0  0
    2.8753    0.1555   -1.1990 O   0  0  0  0  0  0  0  0  0  0  0  0
    3.0393    0.1809    1.0680 O   0  0  0  0  0  0  0  0  0  0  0  0
    0.9007   -0.1000    0.0329 C   0  0  0  0  0  0  0  0  0  0  0  0
    0.0523    1.0072    0.0240 C   0  0  0  0  0  0  0  0  0  0  0  0
   -1.3307    0.8260    0.0073 C   0  0  0  0  0  0  0  0  0  0  0  0
    0.3660   -1.3884    0.0251 C   0  0  0  0  0  0  0  0  0  0  0  0
   -1.8652   -0.4625   -0.0005 C   0  0  0  0  0  0  0  0  0  0  0  0
   -1.0168   -1.5697    0.0085 C   0  0  0  0  0  0  0  0  0  0  0  0
    2.3426    0.0887    0.0519 C   0  0  0  0  0  0  0  0  0  0  0  0
    0.4647    2.0135    0.0305 H   0  0  0  0  0  0  0  0  0  0  0  0
    1.0180   -2.2581    0.0323 H   0  0  0  0  0  0  0  0  0  0  0  0
   -1.4199   -2.5789    0.0026 H   0  0  0  0  0  0  0  0  0  0  0  0
   -3.0714    1.6040   -0.0122 H   0  0  0  0  0  0  0  0  0  0  0  0
   -3.3995   -1.6071   -0.0206 H   0  0  0  0  0  0  0  0  0  0  0  0
    3.8477    0.2822   -1.1751 H   0  0  0  0  0  0  0  0  0  0  0  0
  1  7  1  0  0  0  0
  1 15  1  0  0  0  0
  2  9  1  0  0  0  0
  2 16  1  0  0  0  0
  3 11  1  0  0  0  0
  3 17  1  0  0  0  0
  4 11  2  0  0  0  0
  5  6  2  0  0  0  0
  5  8  1  0  0  0  0
  5 11  1  0  0  0  0
  6  7  1  0  0  0  0
  6 12  1  0  0  0  0
  7  9  2  0  0  0  0
  8 10  2  0  0  0  0
  8 13  1  0  0  0  0
  9 10  1  0  0  0  0
 10 14  1  0  0  0  0
M  END
>  <PUBCHEM_COMPOUND_CID>
72

>  <PUBCHEM_CONFORMER_RMSD>
0.4

>  <PUBCHEM_CONFORMER_DIVERSEORDER>
1
2

>  <PUBCHEM_MMFF94_PARTIAL_CHARGES>
17
1 -0.53
10 -0.15
11 0.63
12 0.15
13 0.15
14 0.15
15 0.45
16 0.45
17 0.5
2 -0.53
3 -0.65
4 -0.57
5 0.09
6 -0.15
7 0.08
8 -0.15
9 0.08

>  <PUBCHEM_EFFECTIVE_ROTOR_COUNT>
1

>  <PUBCHEM_PHARMACOPHORE_FEATURES>
6
1 1 donor
1 2 donor
1 3 acceptor
1 4 acceptor
3 3 4 11 anion
6 5 6 7 8 9 10 rings

>  <PUBCHEM_HEAVY_ATOM_COUNT>
11

>  <PUBCHEM_ATOM_DEF_STEREO_COUNT>
0

>  <PUBCHEM_ATOM_UDEF_STEREO_COUNT>
0

>  <PUBCHEM_BOND_DEF_STEREO_COUNT>
0

>  <PUBCHEM_BOND_UDEF_STEREO_COUNT>
0

>  <PUBCHEM_ISOTOPIC_ATOM_COUNT>
0

>  <PUBCHEM_COMPONENT_COUNT>
1

>  <PUBCHEM_CACTVS_TAUTO_COUNT>
12

>  <PUBCHEM_CONFORMER_ID>
0000004800000002

>  <PUBCHEM_MMFF94_ENERGY>
31.7854

>  <PUBCHEM_FEATURE_SELFOVERLAP>
30.508

>  <PUBCHEM_SHAPE_FINGERPRINT>
10857977 72 18341042012298578161
11206711 2 18410007737074798501
12716758 59 18342742871077428966
12897270 3 18411982468279089183
12932764 1 17775002388522736798
13380535 21 18125174748747123921
14325111 11 18410854326504799984
15310529 11 16588299522744198518
16945 1 18410576218655952747
20645464 45 17917422142637723650
20871998 184 18129101297811832231
21040471 1 18338516322483717258
23402655 69 18196071285051813637
23552423 10 18116436946747237866
23559900 14 18128822954947565670
2748010 2 18266745666811012647
29004967 10 16487259889146574410
369184 2 18060131055151834282
5084963 1 18202010931698385210

>  <PUBCHEM_SHAPE_MULTIPOLES>
202.9
4.22
1.52
0.77
1.18
0.09
-0.04
0.33
0
-0.96
0.01
0.55
0.02
0

>  <PUBCHEM_SHAPE_SELFOVERLAP>
430.235

>  <PUBCHEM_SHAPE_VOLUME>
113.5

>  <PUBCHEM_COORDINATE_TYPE>
2
5
10

$$$$
