61664
 OpenBabel05082101303D

 15 15  0  0  1  0  0  0  0  0999 V2000
    0.9912    1.5010    0.0604 S   0  0  0  0  0  0  0  0  0  0  0  0
   -1.2567   -1.6109    0.1733 O   0  0  0  0  0  0  0  0  0  0  0  0
   -0.5970    0.6949    0.4275 C   0  0  2  0  0  0  0  0  0  0  0  0
    1.0044   -1.0893   -0.4422 C   0  0  0  0  0  0  0  0  0  0  0  0
    1.9436   -0.0317    0.1015 C   0  0  0  0  0  0  0  0  0  0  0  0
   -0.3724   -0.7633    0.0828 C   0  0  0  0  0  0  0  0  0  0  0  0
   -1.7131    1.2993   -0.4032 C   0  0  0  0  0  0  0  0  0  0  0  0
   -0.7997    0.7785    1.4993 H   0  0  0  0  0  0  0  0  0  0  0  0
    1.3097   -2.0873   -0.1151 H   0  0  0  0  0  0  0  0  0  0  0  0
    0.9703   -1.0659   -1.5371 H   0  0  0  0  0  0  0  0  0  0  0  0
    2.2204   -0.2466    1.1387 H   0  0  0  0  0  0  0  0  0  0  0  0
    2.8563    0.0508   -0.4946 H   0  0  0  0  0  0  0  0  0  0  0  0
   -2.6661    0.8087   -0.1751 H   0  0  0  0  0  0  0  0  0  0  0  0
   -1.8341    2.3677   -0.1950 H   0  0  0  0  0  0  0  0  0  0  0  0
   -1.5392    1.1708   -1.4780 H   0  0  0  0  0  0  0  0  0  0  0  0
  1  3  1  0  0  0  0
  1  5  1  0  0  0  0
  2  6  2  0  0  0  0
  3  6  1  0  0  0  0
  3  7  1  0  0  0  0
  3  8  1  1  0  0  0
  4  5  1  0  0  0  0
  4  6  1  0  0  0  0
  4  9  1  0  0  0  0
  4 10  1  0  0  0  0
  5 11  1  0  0  0  0
  5 12  1  0  0  0  0
  7 13  1  0  0  0  0
  7 14  1  0  0  0  0
  7 15  1  0  0  0  0
M  END
>  <PUBCHEM_COMPOUND_CID>
61664

>  <PUBCHEM_CONFORMER_RMSD>
0.4

>  <PUBCHEM_CONFORMER_DIVERSEORDER>
2
1

>  <PUBCHEM_MMFF94_PARTIAL_CHARGES>
6
1 -0.46
2 -0.57
3 0.29
4 0.06
5 0.23
6 0.45

>  <PUBCHEM_EFFECTIVE_ROTOR_COUNT>
0.8

>  <PUBCHEM_PHARMACOPHORE_FEATURES>
2
1 2 acceptor
5 1 3 4 5 6 rings

>  <PUBCHEM_HEAVY_ATOM_COUNT>
7

>  <PUBCHEM_ATOM_DEF_STEREO_COUNT>
0

>  <PUBCHEM_ATOM_UDEF_STEREO_COUNT>
1

>  <PUBCHEM_BOND_DEF_STEREO_COUNT>
0

>  <PUBCHEM_BOND_UDEF_STEREO_COUNT>
0

>  <PUBCHEM_ISOTOPIC_ATOM_COUNT>
0

>  <PUBCHEM_COMPONENT_COUNT>
1

>  <PUBCHEM_CACTVS_TAUTO_COUNT>
3

>  <PUBCHEM_CONFORMER_ID>
0000F0E000000001

>  <PUBCHEM_MMFF94_ENERGY>
5.7894

>  <PUBCHEM_FEATURE_SELFOVERLAP>
10.148

>  <PUBCHEM_SHAPE_FINGERPRINT>
137420 1 12510091722881309122
16714656 1 18121511158797124924
20096714 4 18266179426690946888
21040471 1 18337954459199401728
23552423 10 18261115235500803342
24536 1 17917722287684341032
29004967 10 17832435202184780681

>  <PUBCHEM_SHAPE_MULTIPOLES>
142.04
2.14
1.82
0.7
0.03
0.14
-0.01
-0.37
-0.19
0.2
0.01
0.02
-0.04
0.21

>  <PUBCHEM_SHAPE_SELFOVERLAP>
264.418

>  <PUBCHEM_SHAPE_VOLUME>
91.5

>  <PUBCHEM_COORDINATE_TYPE>
2
5
10

$$$$
