58
 OpenBabel05082101303D

 13 12  0  0  0  0  0  0  0  0999 V2000
    0.0356   -1.7283   -0.0228 O   0  0  0  0  0  0  0  0  0  0  0  0
    2.0802   -0.2922    0.3430 O   0  0  0  0  0  0  0  0  0  0  0  0
    0.8863    1.5952   -0.1821 O   0  0  0  0  0  0  0  0  0  0  0  0
   -1.4919    0.0877   -0.5830 C   0  0  0  0  0  0  0  0  0  0  0  0
   -2.3206    0.4743    0.6291 C   0  0  0  0  0  0  0  0  0  0  0  0
   -0.1742   -0.5362   -0.1899 C   0  0  0  0  0  0  0  0  0  0  0  0
    0.9846    0.3995    0.0057 C   0  0  0  0  0  0  0  0  0  0  0  0
   -2.0375   -0.6483   -1.1850 H   0  0  0  0  0  0  0  0  0  0  0  0
   -1.3206    0.9506   -1.2345 H   0  0  0  0  0  0  0  0  0  0  0  0
   -2.5076   -0.3950    1.2681 H   0  0  0  0  0  0  0  0  0  0  0  0
   -1.8026    1.2256    1.2338 H   0  0  0  0  0  0  0  0  0  0  0  0
   -3.2847    0.8874    0.3179 H   0  0  0  0  0  0  0  0  0  0  0  0
    2.8648    0.2856    0.4557 H   0  0  0  0  0  0  0  0  0  0  0  0
  1  6  2  0  0  0  0
  2  7  1  0  0  0  0
  2 13  1  0  0  0  0
  3  7  2  0  0  0  0
  4  5  1  0  0  0  0
  4  6  1  0  0  0  0
  4  8  1  0  0  0  0
  4  9  1  0  0  0  0
  5 10  1  0  0  0  0
  5 11  1  0  0  0  0
  5 12  1  0  0  0  0
  6  7  1  0  0  0  0
M  END
>  <PUBCHEM_COMPOUND_CID>
58

>  <PUBCHEM_CONFORMER_RMSD>
0.4

>  <PUBCHEM_CONFORMER_DIVERSEORDER>
1
4
2
3

>  <PUBCHEM_MMFF94_PARTIAL_CHARGES>
7
1 -0.57
13 0.5
2 -0.65
3 -0.57
4 0.06
6 0.51
7 0.72

>  <PUBCHEM_EFFECTIVE_ROTOR_COUNT>
2

>  <PUBCHEM_PHARMACOPHORE_FEATURES>
5
1 1 acceptor
1 2 acceptor
1 3 acceptor
1 5 hydrophobe
3 2 3 7 anion

>  <PUBCHEM_HEAVY_ATOM_COUNT>
7

>  <PUBCHEM_ATOM_DEF_STEREO_COUNT>
0

>  <PUBCHEM_ATOM_UDEF_STEREO_COUNT>
0

>  <PUBCHEM_BOND_DEF_STEREO_COUNT>
0

>  <PUBCHEM_BOND_UDEF_STEREO_COUNT>
0

>  <PUBCHEM_ISOTOPIC_ATOM_COUNT>
0

>  <PUBCHEM_COMPONENT_COUNT>
1

>  <PUBCHEM_CACTVS_TAUTO_COUNT>
2

>  <PUBCHEM_CONFORMER_ID>
0000003A00000002

>  <PUBCHEM_MMFF94_ENERGY>
7.2249

>  <PUBCHEM_FEATURE_SELFOVERLAP>
25.441

>  <PUBCHEM_SHAPE_FINGERPRINT>
16714656 1 18409166576303779030
20096714 4 18339924917153923837
21040471 1 18340207513043245708
24536 1 18125709338757241636
29004967 10 18189057499275300107
5084963 1 18270953635233458573
5943 1 15736906687006202319

>  <PUBCHEM_SHAPE_MULTIPOLES>
126.45
2.55
1.34
0.72
0.67
0.13
-0.01
-0.45
0.49
-0.31
-0.04
0.21
-0.03
-0.15

>  <PUBCHEM_SHAPE_SELFOVERLAP>
236.943

>  <PUBCHEM_SHAPE_VOLUME>
78.7

>  <PUBCHEM_COORDINATE_TYPE>
2
5
10

$$$$
