179
 OpenBabel05082101303D

 14 13  0  0  1  0  0  0  0  0999 V2000
   -1.5036   -1.0118   -0.1950 O   0  0  0  0  0  0  0  0  0  0  0  0
    1.0776   -1.2376    0.4014 O   0  0  0  0  0  0  0  0  0  0  0  0
   -0.7234    0.1547   -0.4008 C   0  0  2  0  0  0  0  0  0  0  0  0
    0.7241   -0.1413   -0.0334 C   0  0  0  0  0  0  0  0  0  0  0  0
   -1.2987    1.2665    0.4579 C   0  0  0  0  0  0  0  0  0  0  0  0
    1.7241    0.9695   -0.2302 C   0  0  0  0  0  0  0  0  0  0  0  0
   -0.7727    0.4091   -1.4637 H   0  0  0  0  0  0  0  0  0  0  0  0
   -1.1927    1.0366    1.5243 H   0  0  0  0  0  0  0  0  0  0  0  0
   -2.3694    1.3897    0.2627 H   0  0  0  0  0  0  0  0  0  0  0  0
   -0.8004    2.2219    0.2672 H   0  0  0  0  0  0  0  0  0  0  0  0
    1.5912    1.4154   -1.2191 H   0  0  0  0  0  0  0  0  0  0  0  0
    2.7378    0.5636   -0.1689 H   0  0  0  0  0  0  0  0  0  0  0  0
    1.5964    1.7263    0.5469 H   0  0  0  0  0  0  0  0  0  0  0  0
   -1.5108   -1.2071    0.7579 H   0  0  0  0  0  0  0  0  0  0  0  0
  1  3  1  0  0  0  0
  1 14  1  0  0  0  0
  2  4  2  0  0  0  0
  3  4  1  0  0  0  0
  3  5  1  0  0  0  0
  3  7  1  6  0  0  0
  4  6  1  0  0  0  0
  5  8  1  0  0  0  0
  5  9  1  0  0  0  0
  5 10  1  0  0  0  0
  6 11  1  0  0  0  0
  6 12  1  0  0  0  0
  6 13  1  0  0  0  0
M  END
>  <PUBCHEM_COMPOUND_CID>
179

>  <PUBCHEM_CONFORMER_RMSD>
0.4

>  <PUBCHEM_CONFORMER_DIVERSEORDER>
3
5
1
4
2

>  <PUBCHEM_MMFF94_PARTIAL_CHARGES>
6
1 -0.68
14 0.4
2 -0.57
3 0.34
4 0.45
6 0.06

>  <PUBCHEM_EFFECTIVE_ROTOR_COUNT>
1

>  <PUBCHEM_PHARMACOPHORE_FEATURES>
3
1 1 acceptor
1 1 donor
1 2 acceptor

>  <PUBCHEM_HEAVY_ATOM_COUNT>
6

>  <PUBCHEM_ATOM_DEF_STEREO_COUNT>
0

>  <PUBCHEM_ATOM_UDEF_STEREO_COUNT>
1

>  <PUBCHEM_BOND_DEF_STEREO_COUNT>
0

>  <PUBCHEM_BOND_UDEF_STEREO_COUNT>
0

>  <PUBCHEM_ISOTOPIC_ATOM_COUNT>
0

>  <PUBCHEM_COMPONENT_COUNT>
1

>  <PUBCHEM_CACTVS_TAUTO_COUNT>
3

>  <PUBCHEM_CONFORMER_ID>
000000B300000001

>  <PUBCHEM_MMFF94_ENERGY>
1.7166

>  <PUBCHEM_FEATURE_SELFOVERLAP>
15.231

>  <PUBCHEM_SHAPE_FINGERPRINT>
139733 1 8502116061661335551
16714656 1 17914625087819372028
20096714 4 18339931402533604140
21015797 1 9367354746680210892
21040471 1 18198907998184314937
24536 1 18200019655942388508
29004967 10 17458910452179189665
5943 1 18053067702155076110

>  <PUBCHEM_SHAPE_MULTIPOLES>
111.74
2.09
1.38
0.69
0.16
0
0
-0.32
0
-0.09
-0.14
-0.02
-0.04
-0.3

>  <PUBCHEM_SHAPE_SELFOVERLAP>
200.334

>  <PUBCHEM_SHAPE_VOLUME>
73

>  <PUBCHEM_COORDINATE_TYPE>
2
5
10

$$$$
