56969824
 OpenBabel05082101323D

 49 50  0  0  1  0  0  0  0  0999 V2000
   -0.7216   -2.1750    0.6579 O   0  0  0  0  0  0  0  0  0  0  0  0
    0.0472    0.0016    0.9594 N   0  0  0  0  0  0  0  0  0  0  0  0
    4.0437   -0.9208   -0.9874 N   0  0  0  0  0  0  0  0  0  0  0  0
   -3.1166   -0.7492   -0.3735 C   0  0  2  0  0  0  0  0  0  0  0  0
   -2.3146   -0.4084    0.8963 C   0  0  2  0  0  0  0  0  0  0  0  0
   -2.7292    0.1427   -1.5647 C   0  0  0  0  0  0  0  0  0  0  0  0
   -1.8313    1.9337   -0.0218 C   0  0  1  0  0  0  0  0  0  0  0  0
   -2.2435    1.0930    1.1954 C   0  0  0  0  0  0  0  0  0  0  0  0
   -2.7261    1.6315   -1.2279 C   0  0  0  0  0  0  0  0  0  0  0  0
   -4.6239   -0.6708   -0.1007 C   0  0  0  0  0  0  0  0  0  0  0  0
   -0.9245   -0.9738    0.8152 C   0  0  0  0  0  0  0  0  0  0  0  0
   -1.8706    3.4236    0.3167 C   0  0  0  0  0  0  0  0  0  0  0  0
   -5.0730   -1.8601    0.7408 C   0  0  0  0  0  0  0  0  0  0  0  0
   -5.3979   -0.6117   -1.4131 C   0  0  0  0  0  0  0  0  0  0  0  0
    1.4636   -0.2846    0.9416 C   0  0  0  0  0  0  0  0  0  0  0  0
    2.1947    0.4455   -0.1823 C   0  0  0  0  0  0  0  0  0  0  0  0
    3.6701    0.1317   -0.2258 C   0  0  0  0  0  0  0  0  0  0  0  0
    4.5524    0.9175    0.4981 C   0  0  0  0  0  0  0  0  0  0  0  0
    5.9054    0.6028    0.4360 C   0  0  0  0  0  0  0  0  0  0  0  0
    5.3668   -1.1964   -1.0233 C   0  0  0  0  0  0  0  0  0  0  0  0
    6.3286   -0.4727   -0.3369 C   0  0  0  0  0  0  0  0  0  0  0  0
   -2.8874   -1.7801   -0.6791 H   0  0  0  0  0  0  0  0  0  0  0  0
   -2.7515   -0.8935    1.7763 H   0  0  0  0  0  0  0  0  0  0  0  0
   -3.2994   -0.0508   -2.4769 H   0  0  0  0  0  0  0  0  0  0  0  0
   -1.7000   -0.1241   -1.8470 H   0  0  0  0  0  0  0  0  0  0  0  0
   -0.8089    1.7349   -0.3534 H   0  0  0  0  0  0  0  0  0  0  0  0
   -3.2610    1.4091    1.4698 H   0  0  0  0  0  0  0  0  0  0  0  0
   -1.6792    1.3343    2.1058 H   0  0  0  0  0  0  0  0  0  0  0  0
   -2.3714    2.1939   -2.1005 H   0  0  0  0  0  0  0  0  0  0  0  0
   -3.7490    1.9745   -1.0325 H   0  0  0  0  0  0  0  0  0  0  0  0
   -4.8714    0.2404    0.4561 H   0  0  0  0  0  0  0  0  0  0  0  0
   -2.8774    3.7397    0.6100 H   0  0  0  0  0  0  0  0  0  0  0  0
   -1.5659    4.0273   -0.5449 H   0  0  0  0  0  0  0  0  0  0  0  0
   -1.1884    3.6509    1.1426 H   0  0  0  0  0  0  0  0  0  0  0  0
   -4.8311   -2.8103    0.2521 H   0  0  0  0  0  0  0  0  0  0  0  0
   -6.1583   -1.8354    0.8910 H   0  0  0  0  0  0  0  0  0  0  0  0
   -4.6197   -1.8646    1.7353 H   0  0  0  0  0  0  0  0  0  0  0  0
   -5.1016   -1.4112   -2.1012 H   0  0  0  0  0  0  0  0  0  0  0  0
   -5.3089    0.3564   -1.9148 H   0  0  0  0  0  0  0  0  0  0  0  0
   -6.4701   -0.7417   -1.2217 H   0  0  0  0  0  0  0  0  0  0  0  0
   -0.1213    0.9421    1.2722 H   0  0  0  0  0  0  0  0  0  0  0  0
    1.8612    0.0237    1.9156 H   0  0  0  0  0  0  0  0  0  0  0  0
    1.6220   -1.3658    0.8583 H   0  0  0  0  0  0  0  0  0  0  0  0
    1.7480    0.1692   -1.1466 H   0  0  0  0  0  0  0  0  0  0  0  0
    2.0460    1.5292   -0.0903 H   0  0  0  0  0  0  0  0  0  0  0  0
    4.2120    1.7536    1.0994 H   0  0  0  0  0  0  0  0  0  0  0  0
    6.6286    1.1944    0.9892 H   0  0  0  0  0  0  0  0  0  0  0  0
    5.6450   -2.0447   -1.6400 H   0  0  0  0  0  0  0  0  0  0  0  0
    7.3781   -0.7363   -0.4000 H   0  0  0  0  0  0  0  0  0  0  0  0
  1 11  2  0  0  0  0
  2 11  1  0  0  0  0
  2 15  1  0  0  0  0
  2 41  1  0  0  0  0
  3 17  1  0  0  0  0
  3 20  2  0  0  0  0
  4  5  1  0  0  0  0
  4  6  1  0  0  0  0
  4 10  1  0  0  0  0
  4 22  1  6  0  0  0
  5  8  1  0  0  0  0
  5 11  1  0  0  0  0
  5 23  1  1  0  0  0
  6  9  1  0  0  0  0
  6 24  1  0  0  0  0
  6 25  1  0  0  0  0
  7  8  1  0  0  0  0
  7  9  1  0  0  0  0
  7 12  1  0  0  0  0
  7 26  1  6  0  0  0
  8 27  1  0  0  0  0
  8 28  1  0  0  0  0
  9 29  1  0  0  0  0
  9 30  1  0  0  0  0
 10 13  1  0  0  0  0
 10 14  1  0  0  0  0
 10 31  1  0  0  0  0
 12 32  1  0  0  0  0
 12 33  1  0  0  0  0
 12 34  1  0  0  0  0
 13 35  1  0  0  0  0
 13 36  1  0  0  0  0
 13 37  1  0  0  0  0
 14 38  1  0  0  0  0
 14 39  1  0  0  0  0
 14 40  1  0  0  0  0
 15 16  1  0  0  0  0
 15 42  1  0  0  0  0
 15 43  1  0  0  0  0
 16 17  1  0  0  0  0
 16 44  1  0  0  0  0
 16 45  1  0  0  0  0
 17 18  2  0  0  0  0
 18 19  1  0  0  0  0
 18 46  1  0  0  0  0
 19 21  2  0  0  0  0
 19 47  1  0  0  0  0
 20 21  1  0  0  0  0
 20 48  1  0  0  0  0
 21 49  1  0  0  0  0
M  END
>  <PUBCHEM_COMPOUND_CID>
56969824

>  <PUBCHEM_CONFORMER_RMSD>
1

>  <PUBCHEM_CONFORMER_DIVERSEORDER>
1
70
192
5
157
101
187
99
84
13
160
198
188
168
159
150
111
135
196
114
139
161
41
193
129
105
154
147
56
74
144
203
124
174
15
63
46
204
162
55
97
93
121
6
95
40
67
177
163
16
60
14
91
183
181
180
194
132
65
153
123
115
205
78
152
209
20
176
51
12
102
82
11
158
61
107
206
175
130
112
146
151
106
48
128
200
184
134
156
83
18
21
53
143
118
52
9
164
27
47
98
140
77
79
4
208
85
148
116
2
68
50
24
191
122
59
149
141
113
199
73
167
169
54
142
178
109
120
44
42
26
87
58
8
32
201
155
71
37
182
92
170
125
3
137
108
76
136
197
66
88
30
89
72
185
96
10
104
90
138
86
179
80
171
81
207
33
103
165
166
17
172
145
69
133
38
126
189
195
75
131
35
29
202
173
64
190
43
22
127
23
110
45
36
7
19
186
62
25
117
57
39
119
100
28
34
31
94
49

>  <PUBCHEM_MMFF94_PARTIAL_CHARGES>
17
1 -0.57
11 0.57
15 0.3
16 0.14
17 0.17
18 -0.15
19 -0.15
2 -0.73
20 0.16
21 -0.15
3 -0.62
41 0.37
46 0.15
47 0.15
48 0.15
49 0.15
5 0.06

>  <PUBCHEM_EFFECTIVE_ROTOR_COUNT>
7.2

>  <PUBCHEM_PHARMACOPHORE_FEATURES>
6
1 1 acceptor
1 2 donor
1 3 acceptor
3 10 13 14 hydrophobe
6 3 17 18 19 20 21 rings
6 4 5 6 7 8 9 rings

>  <PUBCHEM_HEAVY_ATOM_COUNT>
21

>  <PUBCHEM_ATOM_DEF_STEREO_COUNT>
0

>  <PUBCHEM_ATOM_UDEF_STEREO_COUNT>
3

>  <PUBCHEM_BOND_DEF_STEREO_COUNT>
0

>  <PUBCHEM_BOND_UDEF_STEREO_COUNT>
0

>  <PUBCHEM_ISOTOPIC_ATOM_COUNT>
0

>  <PUBCHEM_COMPONENT_COUNT>
1

>  <PUBCHEM_CACTVS_TAUTO_COUNT>
4

>  <PUBCHEM_CONFORMER_ID>
03654A60000000C0

>  <PUBCHEM_MMFF94_ENERGY>
60.3066

>  <PUBCHEM_FEATURE_SELFOVERLAP>
30.446

>  <PUBCHEM_SHAPE_FINGERPRINT>
10670039 82 18114181887765167724
11089746 13 14490188332494123142
11315181 36 17748829631242158156
12166972 35 17458347484972345460
12236239 1 15267347348783354282
12616971 3 14045733825509257296
12916748 109 18334296478882814898
13073987 5 18336825300098119114
13668630 136 17060627689998859470
14142880 1 17895475800569942085
14251764 18 15123796210626455375
14251764 30 18200029672460841743
14347332 77 18340762641930150106
14573314 32 18408325458946896950
15183329 4 17313388877885678658
15788980 27 17489870406532152044
16994733 274 15502920928202994957
17844677 252 18341900675879246164
19433438 38 17989208110143320654
19489759 90 18113617876622358962
200 152 17203610376533989538
20300324 65 18409165493613610049
20645477 70 17774731879320472926
21150785 3 18187091685087689198
21637258 2 16200138933470880591
22122407 14 14779557759510332726
221357 26 18343298167562847592
22224240 67 8574438647424844661
2297311 6 18335988635598923211
23402539 116 18412265034246136105
23557571 272 18409452487591407205
23559900 14 18337386170781194240
23622692 88 11600003262991570179
2838139 119 15502643906532181599
3268164 11 18335417950251282820
351380 3 15554447405543844614
497634 4 17632583742308787592
5281201 14 18272656736317761792
5283173 99 18270398287905434040
56616090 284 18408886273895715035
59755656 215 18334574641991925498

>  <PUBCHEM_SHAPE_MULTIPOLES>
416.34
14.27
2.21
1.29
17.63
1.64
-0.23
-4.35
-3.24
-2.26
0.25
-0.86
-0.09
0.93

>  <PUBCHEM_SHAPE_SELFOVERLAP>
849.812

>  <PUBCHEM_SHAPE_VOLUME>
238.7

>  <PUBCHEM_COORDINATE_TYPE>
2
5
10

$$$$
