5770
 OpenBabel05082101303D

 84 89  0  0  1  0  0  0  0  0999 V2000
   -2.3158   -1.2774   -0.0418 O   0  0  0  0  0  0  0  0  0  0  0  0
   -3.1898    1.5297    0.3292 O   0  0  0  0  0  0  0  0  0  0  0  0
    0.3676    1.3855   -1.8894 O   0  0  0  0  0  0  0  0  0  0  0  0
    0.8640   -0.7173   -2.7070 O   0  0  0  0  0  0  0  0  0  0  0  0
   -4.0593    1.8362    2.4385 O   0  0  0  0  0  0  0  0  0  0  0  0
    9.6827   -2.6950    0.1967 O   0  0  0  0  0  0  0  0  0  0  0  0
   -7.8156   -1.6967    2.0956 O   0  0  0  0  0  0  0  0  0  0  0  0
   -7.0353   -0.0512   -2.3337 O   0  0  0  0  0  0  0  0  0  0  0  0
   -8.5075   -1.6147   -0.5848 O   0  0  0  0  0  0  0  0  0  0  0  0
    2.9618    2.0046    0.5361 N   0  0  2  0  0  0  0  0  0  0  0  0
    5.0945   -1.0197   -0.0607 N   0  0  0  0  0  0  0  0  0  0  0  0
    0.7270    0.0963    0.6844 C   0  0  2  0  0  0  0  0  0  0  0  0
    0.5457    1.6126    0.9292 C   0  0  1  0  0  0  0  0  0  0  0  0
    2.2078   -0.3292    0.6926 C   0  0  0  0  0  0  0  0  0  0  0  0
   -0.0864   -0.4497   -0.5089 C   0  0  1  0  0  0  0  0  0  0  0  0
    3.1466    0.6423   -0.0331 C   0  0  2  0  0  0  0  0  0  0  0  0
    1.6097    2.4911    0.2471 C   0  0  0  0  0  0  0  0  0  0  0  0
   -0.8633    2.1109    0.5634 C   0  0  0  0  0  0  0  0  0  0  0  0
   -1.5858   -0.0993   -0.4016 C   0  0  2  0  0  0  0  0  0  0  0  0
   -1.8999    0.9960    0.6255 C   0  0  2  0  0  0  0  0  0  0  0  0
    4.5854    0.2380    0.0983 C   0  0  0  0  0  0  0  0  0  0  0  0
    3.9854    2.9533    0.0438 C   0  0  0  0  0  0  0  0  0  0  0  0
    5.6341    1.1018    0.3331 C   0  0  0  0  0  0  0  0  0  0  0  0
    5.4001    2.5583    0.5277 C   0  0  0  0  0  0  0  0  0  0  0  0
    0.4401    0.0252   -1.8317 C   0  0  0  0  0  0  0  0  0  0  0  0
    6.8303    0.3357    0.3513 C   0  0  0  0  0  0  0  0  0  0  0  0
    6.4639   -0.9915    0.1021 C   0  0  0  0  0  0  0  0  0  0  0  0
   -2.5380   -2.1055   -1.1703 C   0  0  0  0  0  0  0  0  0  0  0  0
    8.1925    0.6363    0.5514 C   0  0  0  0  0  0  0  0  0  0  0  0
   -4.1265    1.3896    1.3038 C   0  0  0  0  0  0  0  0  0  0  0  0
    7.3979   -2.0323    0.0431 C   0  0  0  0  0  0  0  0  0  0  0  0
    9.1357   -0.3962    0.4966 C   0  0  0  0  0  0  0  0  0  0  0  0
    8.7424   -1.7090    0.2461 C   0  0  0  0  0  0  0  0  0  0  0  0
    0.8408    1.9755   -3.1043 C   0  0  0  0  0  0  0  0  0  0  0  0
   -5.2812    0.5997    0.8066 C   0  0  0  0  0  0  0  0  0  0  0  0
   -5.6260    0.6428   -0.5444 C   0  0  0  0  0  0  0  0  0  0  0  0
   -6.0196   -0.1876    1.6900 C   0  0  0  0  0  0  0  0  0  0  0  0
   -7.1028   -0.9318    1.2225 C   0  0  0  0  0  0  0  0  0  0  0  0
   -6.7090   -0.1014   -1.0119 C   0  0  0  0  0  0  0  0  0  0  0  0
    9.2197   -4.0182   -0.0632 C   0  0  0  0  0  0  0  0  0  0  0  0
   -7.4475   -0.8887   -0.1284 C   0  0  0  0  0  0  0  0  0  0  0  0
   -7.3973   -1.6846    3.4591 C   0  0  0  0  0  0  0  0  0  0  0  0
   -6.2297    0.7779   -3.1689 C   0  0  0  0  0  0  0  0  0  0  0  0
   -8.2389   -2.9424   -1.0295 C   0  0  0  0  0  0  0  0  0  0  0  0
    0.2899   -0.4086    1.5608 H   0  0  0  0  0  0  0  0  0  0  0  0
    0.6669    1.7565    2.0142 H   0  0  0  0  0  0  0  0  0  0  0  0
    2.5287   -0.4097    1.7420 H   0  0  0  0  0  0  0  0  0  0  0  0
    2.3032   -1.3410    0.2789 H   0  0  0  0  0  0  0  0  0  0  0  0
    0.0464   -1.5394   -0.5053 H   0  0  0  0  0  0  0  0  0  0  0  0
    2.9229    0.6556   -1.1064 H   0  0  0  0  0  0  0  0  0  0  0  0
    1.5139    3.4764    0.7287 H   0  0  0  0  0  0  0  0  0  0  0  0
    1.4943    2.7288   -0.8010 H   0  0  0  0  0  0  0  0  0  0  0  0
   -0.9101    2.6170   -0.4067 H   0  0  0  0  0  0  0  0  0  0  0  0
   -1.1493    2.8995    1.2734 H   0  0  0  0  0  0  0  0  0  0  0  0
   -1.9738    0.2439   -1.3721 H   0  0  0  0  0  0  0  0  0  0  0  0
   -1.9071    0.5593    1.6344 H   0  0  0  0  0  0  0  0  0  0  0  0
    3.9650    2.9971   -1.0537 H   0  0  0  0  0  0  0  0  0  0  0  0
    3.7767    3.9652    0.4125 H   0  0  0  0  0  0  0  0  0  0  0  0
    6.1493    3.1444   -0.0158 H   0  0  0  0  0  0  0  0  0  0  0  0
    5.5016    2.7933    1.5944 H   0  0  0  0  0  0  0  0  0  0  0  0
    4.5555   -1.8499   -0.2649 H   0  0  0  0  0  0  0  0  0  0  0  0
   -3.1666   -1.5928   -1.9057 H   0  0  0  0  0  0  0  0  0  0  0  0
   -1.6048   -2.4296   -1.6382 H   0  0  0  0  0  0  0  0  0  0  0  0
   -3.0749   -2.9973   -0.8342 H   0  0  0  0  0  0  0  0  0  0  0  0
    8.5144    1.6553    0.7465 H   0  0  0  0  0  0  0  0  0  0  0  0
    7.0314   -3.0314   -0.1564 H   0  0  0  0  0  0  0  0  0  0  0  0
   10.1863   -0.1626    0.6515 H   0  0  0  0  0  0  0  0  0  0  0  0
    1.9191    1.8196   -3.2036 H   0  0  0  0  0  0  0  0  0  0  0  0
    0.3103    1.5560   -3.9647 H   0  0  0  0  0  0  0  0  0  0  0  0
    0.6403    3.0496   -3.0649 H   0  0  0  0  0  0  0  0  0  0  0  0
   -5.0352    1.2796   -1.1931 H   0  0  0  0  0  0  0  0  0  0  0  0
   -5.7040   -0.1877    2.7278 H   0  0  0  0  0  0  0  0  0  0  0  0
    8.5583   -4.3780    0.7323 H   0  0  0  0  0  0  0  0  0  0  0  0
    8.7602   -4.0975   -1.0543 H   0  0  0  0  0  0  0  0  0  0  0  0
   10.0977   -4.6725   -0.0667 H   0  0  0  0  0  0  0  0  0  0  0  0
   -6.3892   -2.0971    3.5760 H   0  0  0  0  0  0  0  0  0  0  0  0
   -7.4959   -0.6883    3.9034 H   0  0  0  0  0  0  0  0  0  0  0  0
   -8.0754   -2.3453    4.0094 H   0  0  0  0  0  0  0  0  0  0  0  0
   -6.3062    1.8332   -2.8855 H   0  0  0  0  0  0  0  0  0  0  0  0
   -5.1922    0.4279   -3.2063 H   0  0  0  0  0  0  0  0  0  0  0  0
   -6.6283    0.6938   -4.1853 H   0  0  0  0  0  0  0  0  0  0  0  0
   -9.1796   -3.3887   -1.3635 H   0  0  0  0  0  0  0  0  0  0  0  0
   -7.8353   -3.5484   -0.2122 H   0  0  0  0  0  0  0  0  0  0  0  0
   -7.5385   -2.9329   -1.8707 H   0  0  0  0  0  0  0  0  0  0  0  0
  1 19  1  0  0  0  0
  1 28  1  0  0  0  0
  2 20  1  0  0  0  0
  2 30  1  0  0  0  0
  3 25  1  0  0  0  0
  3 34  1  0  0  0  0
  4 25  2  0  0  0  0
  5 30  2  0  0  0  0
  6 33  1  0  0  0  0
  6 40  1  0  0  0  0
  7 38  1  0  0  0  0
  7 42  1  0  0  0  0
  8 39  1  0  0  0  0
  8 43  1  0  0  0  0
  9 41  1  0  0  0  0
  9 44  1  0  0  0  0
 10 16  1  0  0  0  0
 10 17  1  6  0  0  0
 10 22  1  0  0  0  0
 11 21  1  0  0  0  0
 11 27  1  0  0  0  0
 11 61  1  0  0  0  0
 12 13  1  0  0  0  0
 12 14  1  0  0  0  0
 12 15  1  0  0  0  0
 12 45  1  1  0  0  0
 13 17  1  0  0  0  0
 13 18  1  0  0  0  0
 13 46  1  1  0  0  0
 14 16  1  0  0  0  0
 14 47  1  0  0  0  0
 14 48  1  0  0  0  0
 15 19  1  0  0  0  0
 15 25  1  0  0  0  0
 15 49  1  1  0  0  0
 16 21  1  0  0  0  0
 16 50  1  6  0  0  0
 17 51  1  0  0  0  0
 17 52  1  0  0  0  0
 18 20  1  0  0  0  0
 18 53  1  0  0  0  0
 18 54  1  0  0  0  0
 19 20  1  0  0  0  0
 19 55  1  6  0  0  0
 20 56  1  1  0  0  0
 21 23  2  0  0  0  0
 22 24  1  0  0  0  0
 22 57  1  0  0  0  0
 22 58  1  0  0  0  0
 23 24  1  0  0  0  0
 23 26  1  0  0  0  0
 24 59  1  0  0  0  0
 24 60  1  0  0  0  0
 26 27  2  0  0  0  0
 26 29  1  0  0  0  0
 27 31  1  0  0  0  0
 28 62  1  0  0  0  0
 28 63  1  0  0  0  0
 28 64  1  0  0  0  0
 29 32  2  0  0  0  0
 29 65  1  0  0  0  0
 30 35  1  0  0  0  0
 31 33  2  0  0  0  0
 31 66  1  0  0  0  0
 32 33  1  0  0  0  0
 32 67  1  0  0  0  0
 34 68  1  0  0  0  0
 34 69  1  0  0  0  0
 34 70  1  0  0  0  0
 35 36  2  0  0  0  0
 35 37  1  0  0  0  0
 36 39  1  0  0  0  0
 36 71  1  0  0  0  0
 37 38  2  0  0  0  0
 37 72  1  0  0  0  0
 38 41  1  0  0  0  0
 39 41  2  0  0  0  0
 40 73  1  0  0  0  0
 40 74  1  0  0  0  0
 40 75  1  0  0  0  0
 42 76  1  0  0  0  0
 42 77  1  0  0  0  0
 42 78  1  0  0  0  0
 43 79  1  0  0  0  0
 43 80  1  0  0  0  0
 43 81  1  0  0  0  0
 44 82  1  0  0  0  0
 44 83  1  0  0  0  0
 44 84  1  0  0  0  0
M  END
>  <PUBCHEM_COMPOUND_CID>
5770

>  <PUBCHEM_CONFORMER_RMSD>
1.2

>  <PUBCHEM_CONFORMER_DIVERSEORDER>
1
33
25
14
17
29
27
13
32
21
16
5
19
20
7
34
31
10
8
24
23
3
28
22
4
26
15
18
11
30
6
12
9
2

>  <PUBCHEM_MMFF94_PARTIAL_CHARGES>
45
1 -0.56
10 -0.81
11 0.03
15 0.06
16 0.45
17 0.27
19 0.28
2 -0.43
20 0.28
21 -0.33
22 0.27
23 -0.18
24 0.18
25 0.66
27 -0.15
28 0.28
29 -0.15
3 -0.43
30 0.63
31 -0.15
32 -0.15
33 0.08
34 0.28
35 0.09
36 -0.15
37 -0.15
38 0.08
39 0.08
4 -0.57
40 0.28
41 0.08
42 0.28
43 0.28
44 0.28
5 -0.57
6 -0.36
61 0.27
65 0.15
66 0.15
67 0.15
7 -0.36
71 0.15
72 0.15
8 -0.36
9 -0.36

>  <PUBCHEM_EFFECTIVE_ROTOR_COUNT>
11.6

>  <PUBCHEM_PHARMACOPHORE_FEATURES>
16
1 1 acceptor
1 10 cation
1 11 cation
1 11 donor
1 4 acceptor
1 5 acceptor
1 6 acceptor
1 7 acceptor
1 8 acceptor
1 9 acceptor
5 11 21 23 26 27 rings
6 10 12 13 14 16 17 rings
6 10 16 21 22 23 24 rings
6 12 13 15 18 19 20 rings
6 26 27 29 31 32 33 rings
6 35 36 37 38 39 41 rings

>  <PUBCHEM_HEAVY_ATOM_COUNT>
44

>  <PUBCHEM_ATOM_DEF_STEREO_COUNT>
6

>  <PUBCHEM_ATOM_UDEF_STEREO_COUNT>
0

>  <PUBCHEM_BOND_DEF_STEREO_COUNT>
0

>  <PUBCHEM_BOND_UDEF_STEREO_COUNT>
0

>  <PUBCHEM_ISOTOPIC_ATOM_COUNT>
0

>  <PUBCHEM_COMPONENT_COUNT>
1

>  <PUBCHEM_CACTVS_TAUTO_COUNT>
1

>  <PUBCHEM_CONFORMER_ID>
0000168A00000019

>  <PUBCHEM_MMFF94_ENERGY>
178.3935

>  <PUBCHEM_FEATURE_SELFOVERLAP>
81.437

>  <PUBCHEM_SHAPE_FINGERPRINT>
11135609 99 18410016575743102851
11456790 92 16200433580732850698
12120059 9 17312814983991039114
12133447 93 16660637436570909700
12592606 108 18412824677628640602
13782708 43 18260829258913121713
13811026 1 18334858329440776642
14294032 229 16200433563647952253
14856354 85 16702015427133231981
150020 25 17822004315860838421
15064981 113 16515672365590468527
15064986 96 17346606236372777286
15198563 99 16660922171871268124
15461852 350 16660365891874994603
15849732 13 17894910754444951295
16994733 274 11959731542844273922
1754911 235 11530484424418044954
19315958 150 18263925600560605072
2026 5 18410576137342134162
20982279 24 18261691289205052786
21987483 16 17915173753254853683
23569917 315 18342460356513781590
23576562 1 14491336287016021131
3178227 256 15913329112887667216
3383291 50 18273217508216771315
3711267 37 8214139702924636458
4017518 198 17095243626680870883
4093350 32 14045476504933111428
44880568 143 17167859773037314573
4616759 239 15123515826619183659
54039377 194 18411984637791422578
6081469 158 18114177523841128876
6086070 43 14057008264943349645
9962374 69 18270954743619916040

>  <PUBCHEM_SHAPE_MULTIPOLES>
842.71
31.31
3.06
2.28
15.63
1.18
0.75
26.58
-5.24
4.4
-0.06
-6.39
-0.18
0.97

>  <PUBCHEM_SHAPE_SELFOVERLAP>
1833.887

>  <PUBCHEM_SHAPE_VOLUME>
456.7

>  <PUBCHEM_COORDINATE_TYPE>
2
5
10

$$$$
