47649
 OpenBabel05082101303D

 17 17  0  0  0  0  0  0  0  0999 V2000
    1.4551    0.5771   -1.3064 S   0  0  0  0  0  0  0  0  0  0  0  0
    2.8378    0.3780    0.2136 S   0  0  0  0  0  0  0  0  0  0  0  0
   -1.9610   -0.3874    0.4025 O   0  0  0  0  0  0  0  0  0  0  0  0
   -0.8122   -0.6905   -0.2568 C   0  0  0  0  0  0  0  0  0  0  0  0
   -0.0789    0.4480   -0.4981 C   0  0  0  0  0  0  0  0  0  0  0  0
   -0.8251    1.5194    0.0481 C   0  0  0  0  0  0  0  0  0  0  0  0
   -0.6057   -2.1151   -0.5617 C   0  0  0  0  0  0  0  0  0  0  0  0
   -1.9611    0.9593    0.5843 C   0  0  0  0  0  0  0  0  0  0  0  0
    1.9510   -0.6887    1.3745 C   0  0  0  0  0  0  0  0  0  0  0  0
   -0.5741    2.5709    0.0553 H   0  0  0  0  0  0  0  0  0  0  0  0
    0.3119   -2.2864   -1.1316 H   0  0  0  0  0  0  0  0  0  0  0  0
   -0.5465   -2.6998    0.3617 H   0  0  0  0  0  0  0  0  0  0  0  0
   -1.4414   -2.5013   -1.1542 H   0  0  0  0  0  0  0  0  0  0  0  0
   -2.8202    1.3608    1.1014 H   0  0  0  0  0  0  0  0  0  0  0  0
    2.6403   -0.9262    2.1916 H   0  0  0  0  0  0  0  0  0  0  0  0
    1.6762   -1.6391    0.9146 H   0  0  0  0  0  0  0  0  0  0  0  0
    1.0946   -0.1887    1.8310 H   0  0  0  0  0  0  0  0  0  0  0  0
  1  2  1  0  0  0  0
  1  5  1  0  0  0  0
  2  9  1  0  0  0  0
  3  4  1  0  0  0  0
  3  8  1  0  0  0  0
  4  5  2  0  0  0  0
  4  7  1  0  0  0  0
  5  6  1  0  0  0  0
  6  8  2  0  0  0  0
  6 10  1  0  0  0  0
  7 11  1  0  0  0  0
  7 12  1  0  0  0  0
  7 13  1  0  0  0  0
  8 14  1  0  0  0  0
  9 15  1  0  0  0  0
  9 16  1  0  0  0  0
  9 17  1  0  0  0  0
M  END
>  <PUBCHEM_COMPOUND_CID>
47649

>  <PUBCHEM_CONFORMER_RMSD>
0.4

>  <PUBCHEM_CONFORMER_DIVERSEORDER>
1
27
24
4
14
26
10
25
23
19
9
13
3
22
2
8
17
7
21
5
6
20
12
16
15
11
18

>  <PUBCHEM_MMFF94_PARTIAL_CHARGES>
11
1 -0.05
10 0.15
14 0.15
2 -0.23
3 -0.28
4 -0.04
5 0.05
6 -0.15
7 0.18
8 -0.01
9 0.23

>  <PUBCHEM_EFFECTIVE_ROTOR_COUNT>
2

>  <PUBCHEM_PHARMACOPHORE_FEATURES>
3
1 3 acceptor
1 9 hydrophobe
5 3 4 5 6 8 rings

>  <PUBCHEM_HEAVY_ATOM_COUNT>
9

>  <PUBCHEM_ATOM_DEF_STEREO_COUNT>
0

>  <PUBCHEM_ATOM_UDEF_STEREO_COUNT>
0

>  <PUBCHEM_BOND_DEF_STEREO_COUNT>
0

>  <PUBCHEM_BOND_UDEF_STEREO_COUNT>
0

>  <PUBCHEM_ISOTOPIC_ATOM_COUNT>
0

>  <PUBCHEM_COMPONENT_COUNT>
1

>  <PUBCHEM_CACTVS_TAUTO_COUNT>
1

>  <PUBCHEM_CONFORMER_ID>
0000BA2100000018

>  <PUBCHEM_MMFF94_ENERGY>
7.6917

>  <PUBCHEM_FEATURE_SELFOVERLAP>
15.223

>  <PUBCHEM_SHAPE_FINGERPRINT>
10857977 72 18060145383115280321
12423570 1 12255044010845469877
18185500 45 18115583897701720830
20645464 45 17846780698170132284
20653085 51 13901911115414691498
20871998 184 18058736951643639262
21040471 1 18270419203720549069
23552423 10 17686344573918408533
29004967 10 16153709825525653980
369184 2 18341886402995773440
5084963 1 17774173300667598260
528862 383 17240490229596033906
54338 74 18198042862932171461

>  <PUBCHEM_SHAPE_MULTIPOLES>
187.05
3.27
1.67
1.18
1.64
0.63
0
-0.43
-0.85
-0.65
0.18
0.58
0.06
-0.54

>  <PUBCHEM_SHAPE_SELFOVERLAP>
351.177

>  <PUBCHEM_SHAPE_VOLUME>
120.6

>  <PUBCHEM_COORDINATE_TYPE>
2
5
10

$$$$
