11159021
 OpenBabel05082101313D

 31 32  0  0  0  0  0  0  0  0999 V2000
    1.4686    2.9427   -1.3600 Cl  0  0  0  0  0  0  0  0  0  0  0  0
   -3.9207   -2.4279   -1.0409 Cl  0  0  0  0  0  0  0  0  0  0  0  0
   -1.7364    2.0624    1.1681 Cl  0  0  0  0  0  0  0  0  0  0  0  0
    5.2172    0.6163    1.4257 F   0  0  0  0  0  0  0  0  0  0  0  0
    4.2437   -1.1714    2.1744 F   0  0  0  0  0  0  0  0  0  0  0  0
    5.4782   -1.2765    0.3874 F   0  0  0  0  0  0  0  0  0  0  0  0
   -1.0599   -1.4843   -0.3679 O   0  0  0  0  0  0  0  0  0  0  0  0
   -1.2412    0.5408   -1.4827 N   0  0  0  0  0  0  0  0  0  0  0  0
    1.4835   -1.0509   -1.1073 N   0  0  0  0  0  0  0  0  0  0  0  0
   -0.0329    0.4103   -2.2649 C   0  0  0  0  0  0  0  0  0  0  0  0
    1.1804    0.2308   -1.3989 C   0  0  0  0  0  0  0  0  0  0  0  0
    1.8990    1.3261   -0.9585 C   0  0  0  0  0  0  0  0  0  0  0  0
    3.3612   -0.2166    0.1668 C   0  0  0  0  0  0  0  0  0  0  0  0
   -2.9327   -0.1603    0.1204 C   0  0  0  0  0  0  0  0  0  0  0  0
    3.0117    1.0891   -0.1591 C   0  0  0  0  0  0  0  0  0  0  0  0
   -1.6759   -0.4286   -0.5767 C   0  0  0  0  0  0  0  0  0  0  0  0
    2.5715   -1.2422   -0.3279 C   0  0  0  0  0  0  0  0  0  0  0  0
    4.5454   -0.5037    1.0198 C   0  0  0  0  0  0  0  0  0  0  0  0
   -4.0161   -1.0245   -0.0369 C   0  0  0  0  0  0  0  0  0  0  0  0
   -3.0487    0.9615    0.9411 C   0  0  0  0  0  0  0  0  0  0  0  0
   -5.2158   -0.7670    0.6264 C   0  0  0  0  0  0  0  0  0  0  0  0
   -4.2483    1.2190    1.6045 C   0  0  0  0  0  0  0  0  0  0  0  0
   -5.3319    0.3548    1.4472 C   0  0  0  0  0  0  0  0  0  0  0  0
    0.0420    1.2630   -2.9458 H   0  0  0  0  0  0  0  0  0  0  0  0
   -0.1556   -0.4776   -2.8979 H   0  0  0  0  0  0  0  0  0  0  0  0
   -1.8125    1.3678   -1.6308 H   0  0  0  0  0  0  0  0  0  0  0  0
    3.6046    1.9229    0.2088 H   0  0  0  0  0  0  0  0  0  0  0  0
    2.7946   -2.2814   -0.1067 H   0  0  0  0  0  0  0  0  0  0  0  0
   -6.0698   -1.4304    0.5151 H   0  0  0  0  0  0  0  0  0  0  0  0
   -4.3559    2.0887    2.2479 H   0  0  0  0  0  0  0  0  0  0  0  0
   -6.2659    0.5554    1.9639 H   0  0  0  0  0  0  0  0  0  0  0  0
  1 12  1  0  0  0  0
  2 19  1  0  0  0  0
  3 20  1  0  0  0  0
  4 18  1  0  0  0  0
  5 18  1  0  0  0  0
  6 18  1  0  0  0  0
  7 16  2  0  0  0  0
  8 10  1  0  0  0  0
  8 16  1  0  0  0  0
  8 26  1  0  0  0  0
  9 11  1  0  0  0  0
  9 17  2  0  0  0  0
 10 11  1  0  0  0  0
 10 24  1  0  0  0  0
 10 25  1  0  0  0  0
 11 12  2  0  0  0  0
 12 15  1  0  0  0  0
 13 15  2  0  0  0  0
 13 17  1  0  0  0  0
 13 18  1  0  0  0  0
 14 16  1  0  0  0  0
 14 19  2  0  0  0  0
 14 20  1  0  0  0  0
 15 27  1  0  0  0  0
 17 28  1  0  0  0  0
 19 21  1  0  0  0  0
 20 22  2  0  0  0  0
 21 23  2  0  0  0  0
 21 29  1  0  0  0  0
 22 23  1  0  0  0  0
 22 30  1  0  0  0  0
 23 31  1  0  0  0  0
M  END
>  <PUBCHEM_COMPOUND_CID>
11159021

>  <PUBCHEM_CONFORMER_RMSD>
0.8

>  <PUBCHEM_CONFORMER_DIVERSEORDER>
1
10
12
6
13
18
4
9
11
15
17
14
7
5
3
2
16
8

>  <PUBCHEM_MMFF94_PARTIAL_CHARGES>
29
1 -0.18
10 0.44
11 0.17
12 0.18
13 -0.14
14 0.09
15 -0.15
16 0.54
17 0.16
18 1.16
19 0.18
2 -0.18
20 0.18
21 -0.15
22 -0.15
23 -0.15
26 0.37
27 0.15
28 0.15
29 0.15
3 -0.18
30 0.15
31 0.15
4 -0.34
5 -0.34
6 -0.34
7 -0.57
8 -0.73
9 -0.62

>  <PUBCHEM_EFFECTIVE_ROTOR_COUNT>
5

>  <PUBCHEM_PHARMACOPHORE_FEATURES>
5
1 7 acceptor
1 8 donor
1 9 acceptor
6 14 19 20 21 22 23 rings
6 9 11 12 13 15 17 rings

>  <PUBCHEM_HEAVY_ATOM_COUNT>
23

>  <PUBCHEM_ATOM_DEF_STEREO_COUNT>
0

>  <PUBCHEM_ATOM_UDEF_STEREO_COUNT>
0

>  <PUBCHEM_BOND_DEF_STEREO_COUNT>
0

>  <PUBCHEM_BOND_UDEF_STEREO_COUNT>
0

>  <PUBCHEM_ISOTOPIC_ATOM_COUNT>
0

>  <PUBCHEM_COMPONENT_COUNT>
1

>  <PUBCHEM_CACTVS_TAUTO_COUNT>
2

>  <PUBCHEM_CONFORMER_ID>
00AA45ED0000000C

>  <PUBCHEM_MMFF94_ENERGY>
54.2926

>  <PUBCHEM_FEATURE_SELFOVERLAP>
25.379

>  <PUBCHEM_SHAPE_FINGERPRINT>
10319926 262 17846227626256785959
10498660 4 14261350254116952283
11132069 177 17845950567165565485
11796584 16 14851595570649332699
12236239 1 18334299790339503739
12363563 72 16370730313602590415
12403259 118 17489866072456573849
12403259 415 16056332690339066773
12507560 40 17489594411395693302
12553582 1 17967538951941850326
12596602 18 18412821408820736882
12616971 3 18261680358939882439
12633257 1 18409452500518461735
12892183 10 18131068195370081126
13103583 49 18410575046282777584
13533116 47 17750243654692822753
13544653 18 17240478075086545044
13583140 156 17917416593292167561
13914758 101 18040428868546319901
13955234 65 16734409276811560228
13965767 371 17693682323928341569
14178342 30 18272095980644359799
14251764 30 18116436947464831570
14341114 176 18201164273575403690
14341114 328 18272658977689108873
14386348 63 15647057083412019833
14739800 52 17843120565616923344
15183329 4 11241961573361139776
15238133 3 18060150829176367168
17349148 13 18335424603456317703
17980427 23 17989202681199735389
1813 80 17676779682003236086
19050596 39 18343026622629451767
193927 3 16081370717898410298
20645477 70 16081371902987539878
20715895 44 18125171429329183513
20739085 24 18334862731903827796
21033648 29 16343694435531362602
21756936 100 17131537458221632454
2215653 11 14924221660192690147
231179 274 15267342920650966598
23175994 123 15791733014229040319
23227448 37 14620499169046920529
23503953 91 18342465845971563271
23557571 272 17346055436411733069
23559900 14 17559142928794829205
2838139 119 14907889445395266584
314194 84 17530961397708308042
341906 21 17560813134065079201
345986 75 17968646121623032936
34797466 226 13686310033063105617
3737641 26 17897722064228850706
4325135 7 14117506658904909165
46194498 28 13190639263857470647
5104073 3 18189635984980071337
67856867 119 18267867366255969173
7064713 232 18202286905027912991
7097593 13 18270126712311181207

>  <PUBCHEM_SHAPE_MULTIPOLES>
441.29
11.64
2.21
1.86
1.2
0.52
-0.12
-2.64
7.3
-0.66
-0.43
1.02
0.37
-2.1

>  <PUBCHEM_SHAPE_SELFOVERLAP>
925.025

>  <PUBCHEM_SHAPE_VOLUME>
253.4

>  <PUBCHEM_COORDINATE_TYPE>
2
5
10

$$$$
