15302585
 OpenBabel05082101323D

 55 54  0  0  1  0  0  0  0  0999 V2000
   -0.3328    1.3088    1.0531 P   0  0  1  0  0  0  0  0  0  0  0  0
    1.0949    1.0867    0.2868 O   0  0  0  0  0  0  0  0  0  0  0  0
   -1.3551    1.2438   -0.2237 O   0  0  0  0  0  0  0  0  0  0  0  0
   -0.6101    0.1155    1.9428 O   0  5  0  0  0  0  0  0  0  0  0  0
   -0.3463    2.7095    1.6279 O   0  0  0  0  0  0  0  0  0  0  0  0
    2.8026   -0.1832   -0.8830 C   0  0  1  0  0  0  0  0  0  0  0  0
   -3.6279    0.9146   -1.0058 C   0  0  1  0  0  0  0  0  0  0  0  0
    3.8993   -0.0192    0.1903 C   0  0  0  0  0  0  0  0  0  0  0  0
   -3.3899   -0.6001   -0.8307 C   0  0  0  0  0  0  0  0  0  0  0  0
    3.0143   -1.3906   -1.8238 C   0  0  0  0  0  0  0  0  0  0  0  0
   -5.1041    1.3446   -0.8524 C   0  0  0  0  0  0  0  0  0  0  0  0
    1.4238   -0.2061   -0.2029 C   0  0  0  0  0  0  0  0  0  0  0  0
   -2.6918    1.6895   -0.0638 C   0  0  0  0  0  0  0  0  0  0  0  0
    5.3046    0.1644   -0.3920 C   0  0  0  0  0  0  0  0  0  0  0  0
   -3.7936   -1.1288    0.5496 C   0  0  0  0  0  0  0  0  0  0  0  0
    6.3872    0.3092    0.6811 C   0  0  0  0  0  0  0  0  0  0  0  0
   -3.5376   -2.6288    0.7187 C   0  0  0  0  0  0  0  0  0  0  0  0
    3.0560   -2.7480   -1.1353 C   0  0  0  0  0  0  0  0  0  0  0  0
   -6.0698    0.7074   -1.8423 C   0  0  0  0  0  0  0  0  0  0  0  0
    7.7881    0.4659    0.1099 C   0  0  0  0  0  0  0  0  0  0  0  0
   -3.9121   -3.1551    2.0956 C   0  0  0  0  0  0  0  0  0  0  0  0
    2.8378    0.7174   -1.5125 H   0  0  0  0  0  0  0  0  0  0  0  0
   -3.3165    1.1516   -2.0331 H   0  0  0  0  0  0  0  0  0  0  0  0
    3.6703    0.8569    0.8105 H   0  0  0  0  0  0  0  0  0  0  0  0
    3.8945   -0.8816    0.8677 H   0  0  0  0  0  0  0  0  0  0  0  0
   -3.9551   -1.1437   -1.5976 H   0  0  0  0  0  0  0  0  0  0  0  0
   -2.3379   -0.8455   -1.0213 H   0  0  0  0  0  0  0  0  0  0  0  0
    2.2009   -1.4043   -2.5605 H   0  0  0  0  0  0  0  0  0  0  0  0
    3.9338   -1.2563   -2.4042 H   0  0  0  0  0  0  0  0  0  0  0  0
   -5.4547    1.1561    0.1685 H   0  0  0  0  0  0  0  0  0  0  0  0
   -5.1565    2.4325   -0.9899 H   0  0  0  0  0  0  0  0  0  0  0  0
    0.6524   -0.4994   -0.9229 H   0  0  0  0  0  0  0  0  0  0  0  0
    1.4102   -0.9220    0.6257 H   0  0  0  0  0  0  0  0  0  0  0  0
   -2.7213    2.7575   -0.3056 H   0  0  0  0  0  0  0  0  0  0  0  0
   -3.0027    1.5841    0.9810 H   0  0  0  0  0  0  0  0  0  0  0  0
    5.5654   -0.6959   -1.0176 H   0  0  0  0  0  0  0  0  0  0  0  0
    5.3162    1.0482   -1.0413 H   0  0  0  0  0  0  0  0  0  0  0  0
   -3.2471   -0.5985    1.3355 H   0  0  0  0  0  0  0  0  0  0  0  0
   -4.8594   -0.9439    0.7228 H   0  0  0  0  0  0  0  0  0  0  0  0
    6.3696   -0.5700    1.3362 H   0  0  0  0  0  0  0  0  0  0  0  0
    6.1612    1.1787    1.3096 H   0  0  0  0  0  0  0  0  0  0  0  0
   -2.4763   -2.8381    0.5383 H   0  0  0  0  0  0  0  0  0  0  0  0
   -4.1046   -3.1820   -0.0395 H   0  0  0  0  0  0  0  0  0  0  0  0
    3.1636   -3.5413   -1.8822 H   0  0  0  0  0  0  0  0  0  0  0  0
    3.9045   -2.8235   -0.4492 H   0  0  0  0  0  0  0  0  0  0  0  0
    2.1368   -2.9412   -0.5748 H   0  0  0  0  0  0  0  0  0  0  0  0
   -7.0661    1.1473   -1.7325 H   0  0  0  0  0  0  0  0  0  0  0  0
   -5.7379    0.8701   -2.8723 H   0  0  0  0  0  0  0  0  0  0  0  0
   -6.1617   -0.3693   -1.6727 H   0  0  0  0  0  0  0  0  0  0  0  0
    8.0636   -0.4054   -0.4926 H   0  0  0  0  0  0  0  0  0  0  0  0
    7.8536    1.3562   -0.5234 H   0  0  0  0  0  0  0  0  0  0  0  0
    8.5194    0.5670    0.9179 H   0  0  0  0  0  0  0  0  0  0  0  0
   -3.3340   -2.6507    2.8764 H   0  0  0  0  0  0  0  0  0  0  0  0
   -4.9758   -2.9953    2.2982 H   0  0  0  0  0  0  0  0  0  0  0  0
   -3.7096   -4.2286    2.1607 H   0  0  0  0  0  0  0  0  0  0  0  0
  1  2  1  0  0  0  0
  1  3  1  0  0  0  0
  1  4  1  1  0  0  0
  1  5  2  0  0  0  0
  2 12  1  0  0  0  0
  3 13  1  0  0  0  0
  6  8  1  0  0  0  0
  6 10  1  0  0  0  0
  6 12  1  0  0  0  0
  6 22  1  6  0  0  0
  7  9  1  0  0  0  0
  7 11  1  0  0  0  0
  7 13  1  0  0  0  0
  7 23  1  6  0  0  0
  8 14  1  0  0  0  0
  8 24  1  0  0  0  0
  8 25  1  0  0  0  0
  9 15  1  0  0  0  0
  9 26  1  0  0  0  0
  9 27  1  0  0  0  0
 10 18  1  0  0  0  0
 10 28  1  0  0  0  0
 10 29  1  0  0  0  0
 11 19  1  0  0  0  0
 11 30  1  0  0  0  0
 11 31  1  0  0  0  0
 12 32  1  0  0  0  0
 12 33  1  0  0  0  0
 13 34  1  0  0  0  0
 13 35  1  0  0  0  0
 14 16  1  0  0  0  0
 14 36  1  0  0  0  0
 14 37  1  0  0  0  0
 15 17  1  0  0  0  0
 15 38  1  0  0  0  0
 15 39  1  0  0  0  0
 16 20  1  0  0  0  0
 16 40  1  0  0  0  0
 16 41  1  0  0  0  0
 17 21  1  0  0  0  0
 17 42  1  0  0  0  0
 17 43  1  0  0  0  0
 18 44  1  0  0  0  0
 18 45  1  0  0  0  0
 18 46  1  0  0  0  0
 19 47  1  0  0  0  0
 19 48  1  0  0  0  0
 19 49  1  0  0  0  0
 20 50  1  0  0  0  0
 20 51  1  0  0  0  0
 20 52  1  0  0  0  0
 21 53  1  0  0  0  0
 21 54  1  0  0  0  0
 21 55  1  0  0  0  0
M  CHG  1   4  -1
M  END
>  <PUBCHEM_COMPOUND_CID>
15302585

>  <PUBCHEM_CONFORMER_RMSD>
1.4

>  <PUBCHEM_CONFORMER_DIVERSEORDER>
3
16
17
29
50
9
40
18
28
53
41
8
27
32
11
38
49
6
42
35
55
47
52
34
54
15
33
31
22
19
44
36
43
4
21
39
25
14
7
51
48
26
46
12
24
37
13
45
10
23
30
1
2
5
20

>  <PUBCHEM_MMFF94_PARTIAL_CHARGES>
7
1 1.44
12 0.28
13 0.28
2 -0.55
3 -0.55
4 -0.95
5 -0.95

>  <PUBCHEM_EFFECTIVE_ROTOR_COUNT>
14

>  <PUBCHEM_PHARMACOPHORE_FEATURES>
8
1 18 hydrophobe
1 19 hydrophobe
1 20 hydrophobe
1 21 hydrophobe
1 4 acceptor
1 5 acceptor
5 6 8 10 14 16 hydrophobe
5 7 9 11 15 17 hydrophobe

>  <PUBCHEM_HEAVY_ATOM_COUNT>
21

>  <PUBCHEM_ATOM_DEF_STEREO_COUNT>
0

>  <PUBCHEM_ATOM_UDEF_STEREO_COUNT>
2

>  <PUBCHEM_BOND_DEF_STEREO_COUNT>
0

>  <PUBCHEM_BOND_UDEF_STEREO_COUNT>
0

>  <PUBCHEM_ISOTOPIC_ATOM_COUNT>
0

>  <PUBCHEM_COMPONENT_COUNT>
1

>  <PUBCHEM_CACTVS_TAUTO_COUNT>
1

>  <PUBCHEM_CONFORMER_ID>
00E97FB900000011

>  <PUBCHEM_MMFF94_ENERGY>
15.7761

>  <PUBCHEM_FEATURE_SELFOVERLAP>
40.615

>  <PUBCHEM_SHAPE_FINGERPRINT>
107951 10 18187081716442792807
10968037 39 17988636385524721845
11315181 36 18060415833138107281
12596602 18 18114176463448131706
12616971 3 15574720196235824542
12788726 201 18129092325888921297
12892183 10 11959730439232994357
14123256 10 17774996886923013740
14251751 18 18188496881584221962
14251764 30 17025738128760719019
15183329 4 13767919144429576080
23402539 116 16370725928683827636
23559900 14 18410847793860095184
4325135 7 17917986170923744876
474229 33 18131350822046782790
4921388 177 18187090550889378903
5385378 56 12540965232074791680
5486654 2 17846491544076778924
9862886 166 18334576871179691746

>  <PUBCHEM_SHAPE_MULTIPOLES>
412.54
16.2
2.78
1.75
19.28
2.17
-0.18
-0.52
2.93
-3.59
-1.08
-1.28
0.47
3.32

>  <PUBCHEM_SHAPE_SELFOVERLAP>
746.364

>  <PUBCHEM_SHAPE_VOLUME>
265.2

>  <PUBCHEM_COORDINATE_TYPE>
2
5
10

$$$$
