7793
 OpenBabel05082101303D

 31 30  0  0  1  0  0  0  0  0999 V2000
    5.2059   -0.7187   -0.0222 O   0  0  0  0  0  0  0  0  0  0  0  0
    1.5655    0.3119    0.2260 C   0  0  1  0  0  0  0  0  0  0  0  0
    0.2647   -0.4924   -0.0042 C   0  0  0  0  0  0  0  0  0  0  0  0
    2.8170   -0.5441   -0.0441 C   0  0  0  0  0  0  0  0  0  0  0  0
   -1.0435    0.2643    0.2689 C   0  0  0  0  0  0  0  0  0  0  0  0
    1.5377    1.5625   -0.6616 C   0  0  0  0  0  0  0  0  0  0  0  0
    4.1311    0.1764    0.2377 C   0  0  0  0  0  0  0  0  0  0  0  0
   -2.2647   -0.5581   -0.0341 C   0  0  0  0  0  0  0  0  0  0  0  0
   -3.5565   -0.1787   -0.0062 C   0  0  0  0  0  0  0  0  0  0  0  0
   -4.7329   -1.0577   -0.3223 C   0  0  0  0  0  0  0  0  0  0  0  0
   -3.9242    1.2346    0.3622 C   0  0  0  0  0  0  0  0  0  0  0  0
    1.5885    0.6360    1.2745 H   0  0  0  0  0  0  0  0  0  0  0  0
    0.2930   -1.3854    0.6347 H   0  0  0  0  0  0  0  0  0  0  0  0
    0.2552   -0.8603   -1.0396 H   0  0  0  0  0  0  0  0  0  0  0  0
    2.8161   -0.8949   -1.0846 H   0  0  0  0  0  0  0  0  0  0  0  0
    2.7732   -1.4539    0.5688 H   0  0  0  0  0  0  0  0  0  0  0  0
   -1.0609    0.5719    1.3208 H   0  0  0  0  0  0  0  0  0  0  0  0
   -1.0893    1.1614   -0.3552 H   0  0  0  0  0  0  0  0  0  0  0  0
    1.4401    1.2980   -1.7199 H   0  0  0  0  0  0  0  0  0  0  0  0
    0.7160    2.2330   -0.3950 H   0  0  0  0  0  0  0  0  0  0  0  0
    2.4461    2.1602   -0.5461 H   0  0  0  0  0  0  0  0  0  0  0  0
    4.1933    0.5082    1.2787 H   0  0  0  0  0  0  0  0  0  0  0  0
    4.2739    1.0405   -0.4149 H   0  0  0  0  0  0  0  0  0  0  0  0
   -2.0715   -1.5969   -0.3011 H   0  0  0  0  0  0  0  0  0  0  0  0
    5.1125   -1.4732    0.5840 H   0  0  0  0  0  0  0  0  0  0  0  0
   -4.4172   -2.0717   -0.5889 H   0  0  0  0  0  0  0  0  0  0  0  0
   -5.2982   -0.6505   -1.1667 H   0  0  0  0  0  0  0  0  0  0  0  0
   -5.3989   -1.1313    0.5433 H   0  0  0  0  0  0  0  0  0  0  0  0
   -4.6074    1.2316    1.2185 H   0  0  0  0  0  0  0  0  0  0  0  0
   -3.0704    1.8596    0.6362 H   0  0  0  0  0  0  0  0  0  0  0  0
   -4.4309    1.7204   -0.4786 H   0  0  0  0  0  0  0  0  0  0  0  0
  1  7  1  0  0  0  0
  1 25  1  0  0  0  0
  2  3  1  0  0  0  0
  2  4  1  0  0  0  0
  2  6  1  0  0  0  0
  2 12  1  1  0  0  0
  3  5  1  0  0  0  0
  3 13  1  0  0  0  0
  3 14  1  0  0  0  0
  4  7  1  0  0  0  0
  4 15  1  0  0  0  0
  4 16  1  0  0  0  0
  5  8  1  0  0  0  0
  5 17  1  0  0  0  0
  5 18  1  0  0  0  0
  6 19  1  0  0  0  0
  6 20  1  0  0  0  0
  6 21  1  0  0  0  0
  7 22  1  0  0  0  0
  7 23  1  0  0  0  0
  8  9  2  0  0  0  0
  8 24  1  0  0  0  0
  9 10  1  0  0  0  0
  9 11  1  0  0  0  0
 10 26  1  0  0  0  0
 10 27  1  0  0  0  0
 10 28  1  0  0  0  0
 11 29  1  0  0  0  0
 11 30  1  0  0  0  0
 11 31  1  0  0  0  0
M  END
>  <PUBCHEM_COMPOUND_CID>
7793

>  <PUBCHEM_CONFORMER_RMSD>
0.6

>  <PUBCHEM_CONFORMER_DIVERSEORDER>
1
88
24
68
33
91
59
67
20
19
47
48
94
83
21
92
61
51
31
62
80
72
38
84
49
5
78
43
69
75
89
55
10
34
79
63
65
30
40
86
56
66
14
29
53
74
82
58
22
32
71
93
7
18
3
57
90
42
9
87
85
25
17
36
39
73
52
45
76
54
27
12
35
81
2
77
44
64
23
41
13
37
50
70
11
46
60
6
8
28
15
26
4
16

>  <PUBCHEM_MMFF94_PARTIAL_CHARGES>
9
1 -0.68
10 0.14
11 0.14
24 0.15
25 0.4
5 0.14
7 0.28
8 -0.29
9 -0.28

>  <PUBCHEM_EFFECTIVE_ROTOR_COUNT>
5

>  <PUBCHEM_PHARMACOPHORE_FEATURES>
5
1 1 acceptor
1 1 donor
1 6 hydrophobe
3 9 10 11 hydrophobe
5 2 3 4 5 8 hydrophobe

>  <PUBCHEM_HEAVY_ATOM_COUNT>
11

>  <PUBCHEM_ATOM_DEF_STEREO_COUNT>
1

>  <PUBCHEM_ATOM_UDEF_STEREO_COUNT>
0

>  <PUBCHEM_BOND_DEF_STEREO_COUNT>
0

>  <PUBCHEM_BOND_UDEF_STEREO_COUNT>
0

>  <PUBCHEM_ISOTOPIC_ATOM_COUNT>
0

>  <PUBCHEM_COMPONENT_COUNT>
1

>  <PUBCHEM_CACTVS_TAUTO_COUNT>
1

>  <PUBCHEM_CONFORMER_ID>
00001E7100000018

>  <PUBCHEM_MMFF94_ENERGY>
13.3777

>  <PUBCHEM_FEATURE_SELFOVERLAP>
25.423

>  <PUBCHEM_SHAPE_FINGERPRINT>
11062470 55 17775284962937053210
12162725 195 18409171038933282413
124424 183 17676209082507273273
12932764 1 16298655183556025601
13690532 89 18409729564769695458
14123238 8 18410574002468535382
14325111 11 18411420635354709849
17834072 33 18340487867350016396
17834076 25 17132115758140106730
18186145 218 17530960319681890793
1986462 14 18412545410053948093
20279233 1 15626230130259365029
20645477 70 18201441320678638206
20671657 1 17970358219803698788
20719005 15 18413670218675256466
21119208 17 18408038524497079619
22485316 2 18273493455406521886
23402539 116 18201714051090838813
23532345 12 18413393141660894705
42 15 18201721755808460987
42788 4 18342738520613064346

>  <PUBCHEM_SHAPE_MULTIPOLES>
220.51
10.48
1.22
0.69
1.76
0.36
-0.02
-2.08
0.04
-0.41
-0.12
-0.04
0.08
-0.44

>  <PUBCHEM_SHAPE_SELFOVERLAP>
399.412

>  <PUBCHEM_SHAPE_VOLUME>
142.4

>  <PUBCHEM_COORDINATE_TYPE>
2
5
10

$$$$
