3018539
 OpenBabel05082101313D

 21 20  0  0  0  0  0  0  0  0999 V2000
   -2.5045    0.6697    0.3273 S   0  0  0  0  0  0  0  0  0  0  0  0
   -0.3890   -0.9932    0.5548 O   0  0  0  0  0  0  0  0  0  0  0  0
    0.3487    1.1505    0.1275 O   0  0  0  0  0  0  0  0  0  0  0  0
    2.9669   -0.4463    0.0516 C   0  0  0  0  0  0  0  0  0  0  0  0
    1.6316   -0.7801   -0.6087 C   0  0  0  0  0  0  0  0  0  0  0  0
    3.2824    1.0371   -0.0469 C   0  0  0  0  0  0  0  0  0  0  0  0
    0.4778   -0.0637    0.0542 C   0  0  0  0  0  0  0  0  0  0  0  0
   -1.7248   -0.9449    0.0334 C   0  0  0  0  0  0  0  0  0  0  0  0
   -4.0891    0.3709   -0.4932 C   0  0  0  0  0  0  0  0  0  0  0  0
    2.9583   -0.7475    1.1054 H   0  0  0  0  0  0  0  0  0  0  0  0
    3.7591   -1.0170   -0.4463 H   0  0  0  0  0  0  0  0  0  0  0  0
    1.6310   -0.5077   -1.6701 H   0  0  0  0  0  0  0  0  0  0  0  0
    1.4721   -1.8639   -0.5630 H   0  0  0  0  0  0  0  0  0  0  0  0
    2.6810    1.6328    0.6449 H   0  0  0  0  0  0  0  0  0  0  0  0
    3.1355    1.4149   -1.0637 H   0  0  0  0  0  0  0  0  0  0  0  0
    4.3303    1.2075    0.2233 H   0  0  0  0  0  0  0  0  0  0  0  0
   -2.3021   -1.7235    0.5398 H   0  0  0  0  0  0  0  0  0  0  0  0
   -1.6937   -1.1683   -1.0381 H   0  0  0  0  0  0  0  0  0  0  0  0
   -4.6120   -0.4629   -0.0176 H   0  0  0  0  0  0  0  0  0  0  0  0
   -3.9331    0.1521   -1.5528 H   0  0  0  0  0  0  0  0  0  0  0  0
   -4.7122    1.2653   -0.4106 H   0  0  0  0  0  0  0  0  0  0  0  0
  1  8  1  0  0  0  0
  1  9  1  0  0  0  0
  2  7  1  0  0  0  0
  2  8  1  0  0  0  0
  3  7  2  0  0  0  0
  4  5  1  0  0  0  0
  4  6  1  0  0  0  0
  4 10  1  0  0  0  0
  4 11  1  0  0  0  0
  5  7  1  0  0  0  0
  5 12  1  0  0  0  0
  5 13  1  0  0  0  0
  6 14  1  0  0  0  0
  6 15  1  0  0  0  0
  6 16  1  0  0  0  0
  8 17  1  0  0  0  0
  8 18  1  0  0  0  0
  9 19  1  0  0  0  0
  9 20  1  0  0  0  0
  9 21  1  0  0  0  0
M  END
>  <PUBCHEM_COMPOUND_CID>
3018539

>  <PUBCHEM_CONFORMER_RMSD>
0.6

>  <PUBCHEM_CONFORMER_DIVERSEORDER>
1
54
111
95
117
79
62
19
121
23
60
116
96
4
105
114
118
71
53
122
31
6
119
40
21
120
87
113
30
89
88
84
100
74
77
38
11
68
50
75
43
55
41
44
107
18
65
106
70
103
86
24
63
16
12
8
14
52
91
36
47
15
101
112
108
94
37
29
10
82
58
69
64
56
93
2
72
51
5
85
67
25
83
7
59
90
80
28
57
73
66
34
104
92
3
81
102
13
9
99
17
76
115
27
42
61
39
98
78
110
97
109
20
26
48
45
22
33
49
46
32
35

>  <PUBCHEM_MMFF94_PARTIAL_CHARGES>
7
1 -0.46
2 -0.43
3 -0.57
5 0.06
7 0.66
8 0.51
9 0.23

>  <PUBCHEM_EFFECTIVE_ROTOR_COUNT>
5

>  <PUBCHEM_PHARMACOPHORE_FEATURES>
3
1 3 acceptor
1 6 hydrophobe
1 9 hydrophobe

>  <PUBCHEM_HEAVY_ATOM_COUNT>
9

>  <PUBCHEM_ATOM_DEF_STEREO_COUNT>
0

>  <PUBCHEM_ATOM_UDEF_STEREO_COUNT>
0

>  <PUBCHEM_BOND_DEF_STEREO_COUNT>
0

>  <PUBCHEM_BOND_UDEF_STEREO_COUNT>
0

>  <PUBCHEM_ISOTOPIC_ATOM_COUNT>
0

>  <PUBCHEM_COMPONENT_COUNT>
1

>  <PUBCHEM_CACTVS_TAUTO_COUNT>
1

>  <PUBCHEM_CONFORMER_ID>
002E0F2B0000006F

>  <PUBCHEM_MMFF94_ENERGY>
21.7383

>  <PUBCHEM_FEATURE_SELFOVERLAP>
15.223

>  <PUBCHEM_SHAPE_FINGERPRINT>
11062470 55 18272651246568517470
12932764 1 16805315617781994094
14325111 11 18409731755134256275
14390081 3 18412267237390155824
14993402 34 16917350359141322772
177051 138 10231757785956647748
20201158 50 18342741797208978486
21293036 1 18412260632173546709
23402539 116 18272640230383676349
23402655 69 18272927190213238397
3248919 1 17704080572647705074

>  <PUBCHEM_SHAPE_MULTIPOLES>
177.33
6.38
1.2
0.72
2.25
0.07
0.02
1.45
0.83
-0.25
-0.03
0.12
-0.04
0.08

>  <PUBCHEM_SHAPE_SELFOVERLAP>
309.626

>  <PUBCHEM_SHAPE_VOLUME>
118.1

>  <PUBCHEM_COORDINATE_TYPE>
2
5
10

$$$$
