5363203
 OpenBabel05082101313D

 27 26  0  0  0  0  0  0  0  0999 V2000
    2.1921   -0.3230    0.4854 O   0  0  0  0  0  0  0  0  0  0  0  0
    3.3449    0.7368   -1.2131 O   0  0  0  0  0  0  0  0  0  0  0  0
   -2.6008    0.2608    0.0419 C   0  0  0  0  0  0  0  0  0  0  0  0
   -1.9961   -1.0711    0.4970 C   0  0  0  0  0  0  0  0  0  0  0  0
   -4.1309    0.2422    0.0028 C   0  0  0  0  0  0  0  0  0  0  0  0
   -0.4961   -1.0444    0.5567 C   0  0  0  0  0  0  0  0  0  0  0  0
   -4.6903    1.5849   -0.4416 C   0  0  0  0  0  0  0  0  0  0  0  0
    0.2972   -1.3738   -0.4732 C   0  0  0  0  0  0  0  0  0  0  0  0
    1.7893   -1.3483   -0.4117 C   0  0  0  0  0  0  0  0  0  0  0  0
    2.9726    0.6649   -0.0498 C   0  0  0  0  0  0  0  0  0  0  0  0
    3.3181    1.6711    1.0057 C   0  0  0  0  0  0  0  0  0  0  0  0
   -2.2183    0.5133   -0.9555 H   0  0  0  0  0  0  0  0  0  0  0  0
   -2.2669    1.0589    0.7176 H   0  0  0  0  0  0  0  0  0  0  0  0
   -2.3264   -1.8692   -0.1802 H   0  0  0  0  0  0  0  0  0  0  0  0
   -2.3793   -1.3367    1.4897 H   0  0  0  0  0  0  0  0  0  0  0  0
   -4.5242   -0.0022    0.9962 H   0  0  0  0  0  0  0  0  0  0  0  0
   -4.4747   -0.5390   -0.6848 H   0  0  0  0  0  0  0  0  0  0  0  0
   -0.0641   -0.7177    1.4989 H   0  0  0  0  0  0  0  0  0  0  0  0
   -5.7840    1.5509   -0.4633 H   0  0  0  0  0  0  0  0  0  0  0  0
   -4.3889    2.3824    0.2451 H   0  0  0  0  0  0  0  0  0  0  0  0
   -4.3384    1.8438   -1.4453 H   0  0  0  0  0  0  0  0  0  0  0  0
   -0.1502   -1.7154   -1.4029 H   0  0  0  0  0  0  0  0  0  0  0  0
    2.1850   -1.2171   -1.4245 H   0  0  0  0  0  0  0  0  0  0  0  0
    2.1614   -2.3083   -0.0384 H   0  0  0  0  0  0  0  0  0  0  0  0
    3.8827    1.1881    1.8071 H   0  0  0  0  0  0  0  0  0  0  0  0
    2.4043    2.1250    1.3974 H   0  0  0  0  0  0  0  0  0  0  0  0
    3.9381    2.4584    0.5675 H   0  0  0  0  0  0  0  0  0  0  0  0
  1  9  1  0  0  0  0
  1 10  1  0  0  0  0
  2 10  2  0  0  0  0
  3  4  1  0  0  0  0
  3  5  1  0  0  0  0
  3 12  1  0  0  0  0
  3 13  1  0  0  0  0
  4  6  1  0  0  0  0
  4 14  1  0  0  0  0
  4 15  1  0  0  0  0
  5  7  1  0  0  0  0
  5 16  1  0  0  0  0
  5 17  1  0  0  0  0
  6  8  2  0  0  0  0
  6 18  1  0  0  0  0
  7 19  1  0  0  0  0
  7 20  1  0  0  0  0
  7 21  1  0  0  0  0
  8  9  1  0  0  0  0
  8 22  1  0  0  0  0
  9 23  1  0  0  0  0
  9 24  1  0  0  0  0
 10 11  1  0  0  0  0
 11 25  1  0  0  0  0
 11 26  1  0  0  0  0
 11 27  1  0  0  0  0
M  END
>  <PUBCHEM_COMPOUND_CID>
5363203

>  <PUBCHEM_CONFORMER_RMSD>
0.6

>  <PUBCHEM_CONFORMER_DIVERSEORDER>
1
308
36
351
165
185
202
362
123
103
174
13
319
176
42
344
11
160
329
342
143
320
2
222
286
139
53
235
19
125
119
274
164
34
162
111
24
346
384
15
334
244
59
338
28
388
318
39
159
386
292
26
307
389
80
387
51
361
226
294
201
333
314
144
326
50
40
177
304
206
61
179
345
324
376
181
88
231
78
303
253
170
323
16
65
195
322
178
18
37
391
309
379
149
92
316
137
293
14
86
67
120
148
83
171
291
220
288
107
8
306
117
152
248
312
124
390
311
146
368
370
158
99
68
17
327
30
350
278
337
383
153
29
5
328
85
112
97
347
385
216
133
382
232
38
354
310
141
190
348
355
156
270
27
96
305
234
276
356
166
163
9
66
266
366
212
363
114
233
343
280
6
250
183
93
377
102
332
187
147
72
157
87
313
359
357
227
115
237
217
281
199
352
299
214
341
70
340
240
196
169
150
264
375
122
175
12
32
283
238
131
336
116
331
45
130
35
118
219
262
315
22
285
10
204
49
62
393
194
173
224
105
132
258
47
371
330
180
277
325
228
229
167
246
44
380
257
43
64
198
378
287
263
91
127
121
33
242
381
372
90
256
205
251
272
208
275
373
249
210
247
79
321
209
296
360
63
259
25
349
221
54
353
374
239
290
3
215
73
21
261
265
267
154
223
136
151
168
55
335
188
129
77
364
23
76
186
82
339
113
109
41
200
142
211
295
138
81
254
110
273
289
207
106
365
203
225
317
58
184
94
135
48
46
302
297
282
369
218
172
161
298
84
241
155
128
367
300
89
56
52
284
252
358
243
236
57
245
60
100
126
101
182
301
271
134
20
4
192
392
260
31
74
268
95
98
7
189
193
108
279
145
104
75
140
230
197
191
69
71
255
269
213

>  <PUBCHEM_MMFF94_PARTIAL_CHARGES>
10
1 -0.43
10 0.66
11 0.06
18 0.15
2 -0.57
22 0.15
4 0.14
6 -0.29
8 -0.29
9 0.42

>  <PUBCHEM_EFFECTIVE_ROTOR_COUNT>
6

>  <PUBCHEM_PHARMACOPHORE_FEATURES>
3
1 2 acceptor
1 7 hydrophobe
4 3 4 5 6 hydrophobe

>  <PUBCHEM_HEAVY_ATOM_COUNT>
11

>  <PUBCHEM_ATOM_DEF_STEREO_COUNT>
0

>  <PUBCHEM_ATOM_UDEF_STEREO_COUNT>
0

>  <PUBCHEM_BOND_DEF_STEREO_COUNT>
1

>  <PUBCHEM_BOND_UDEF_STEREO_COUNT>
0

>  <PUBCHEM_ISOTOPIC_ATOM_COUNT>
0

>  <PUBCHEM_COMPONENT_COUNT>
1

>  <PUBCHEM_CACTVS_TAUTO_COUNT>
1

>  <PUBCHEM_CONFORMER_ID>
0051D60300000024

>  <PUBCHEM_MMFF94_ENERGY>
6.0404

>  <PUBCHEM_FEATURE_SELFOVERLAP>
15.223

>  <PUBCHEM_SHAPE_FINGERPRINT>
11543360 7 16558743546805036181
12006461 19 9079111176816331149
122479 349 18260269655124436931
13255334 9 10735004284356171757
14251710 61 9007063486714667969
14252887 29 11169911693189970324
15239191 94 10663822974988073509
177051 138 9223230754137708579
18186145 218 17917722321833134963
19107657 162 8214157234727262128
19782 4 18341602754628487216
20432913 95 10953744395849832141
20606313 2 18342174440613882217
20724930 31 9223230749974571004
20767249 271 18187643574851638853
20767249 442 18409727382773198432
20767249 462 18333733524296861589
20871998 22 10665217155753309338
212847 35 18334295331831173544
21354914 76 8646478635774861945
22096605 113 18272368663764797987
22485316 2 10447922858978681619
22959321 54 18343582927989118849
23402655 69 18059856134411268293
23500284 214 18186527587987622531
23557571 272 18264507207387502671
23590187 173 18201428160508128265
449060 62 18335706009502262573
548570 60 18260544511609369917
94968 8 10303809899721794548

>  <PUBCHEM_SHAPE_MULTIPOLES>
214.64
8.69
1.78
0.92
5.87
0.22
0.05
5.86
0.85
-0.34
-0.07
-0.54
0.13
0.8

>  <PUBCHEM_SHAPE_SELFOVERLAP>
393.304

>  <PUBCHEM_SHAPE_VOLUME>
135.9

>  <PUBCHEM_COORDINATE_TYPE>
2
5
10

$$$$
