170977
 OpenBabel05082101313D

 31 30  0  0  1  0  0  0  0  0999 V2000
    2.7233    1.7054   -0.1031 O   0  0  0  0  0  0  0  0  0  0  0  0
   -0.9517   -0.6346   -0.2576 C   0  0  0  0  0  0  0  0  0  0  0  0
   -2.2680   -0.0769    0.2891 C   0  0  0  0  0  0  0  0  0  0  0  0
    0.2515    0.1340    0.2950 C   0  0  0  0  0  0  0  0  0  0  0  0
   -3.4666   -0.8683   -0.2392 C   0  0  0  0  0  0  0  0  0  0  0  0
    1.5658   -0.4049   -0.2856 C   0  0  0  0  0  0  0  0  0  0  0  0
   -4.8121   -0.3317    0.2538 C   0  0  0  0  0  0  0  0  0  0  0  0
    2.8270    0.3175    0.2103 C   0  0  1  0  0  0  0  0  0  0  0  0
   -5.0644    1.1185   -0.1288 C   0  0  0  0  0  0  0  0  0  0  0  0
    4.0958   -0.2280   -0.3809 C   0  0  0  0  0  0  0  0  0  0  0  0
    5.0994   -0.7310    0.3470 C   0  0  0  0  0  0  0  0  0  0  0  0
   -0.9562   -0.5748   -1.3529 H   0  0  0  0  0  0  0  0  0  0  0  0
   -0.8619   -1.6949    0.0084 H   0  0  0  0  0  0  0  0  0  0  0  0
   -2.2607   -0.1114    1.3851 H   0  0  0  0  0  0  0  0  0  0  0  0
   -2.3455    0.9756   -0.0040 H   0  0  0  0  0  0  0  0  0  0  0  0
    0.2742    0.0515    1.3882 H   0  0  0  0  0  0  0  0  0  0  0  0
    0.1468    1.1977    0.0514 H   0  0  0  0  0  0  0  0  0  0  0  0
   -3.3742   -1.9178    0.0654 H   0  0  0  0  0  0  0  0  0  0  0  0
   -3.4573   -0.8558   -1.3362 H   0  0  0  0  0  0  0  0  0  0  0  0
    1.6492   -1.4747   -0.0549 H   0  0  0  0  0  0  0  0  0  0  0  0
    1.5124   -0.3197   -1.3795 H   0  0  0  0  0  0  0  0  0  0  0  0
   -5.6106   -0.9536   -0.1677 H   0  0  0  0  0  0  0  0  0  0  0  0
   -4.8733   -0.4327    1.3437 H   0  0  0  0  0  0  0  0  0  0  0  0
    2.8611    0.2482    1.3041 H   0  0  0  0  0  0  0  0  0  0  0  0
   -6.0913    1.3986    0.1279 H   0  0  0  0  0  0  0  0  0  0  0  0
   -4.9312    1.2721   -1.2042 H   0  0  0  0  0  0  0  0  0  0  0  0
   -4.3978    1.8001    0.4074 H   0  0  0  0  0  0  0  0  0  0  0  0
    4.1996   -0.2013   -1.4626 H   0  0  0  0  0  0  0  0  0  0  0  0
    2.6290    1.7898   -1.0676 H   0  0  0  0  0  0  0  0  0  0  0  0
    5.9939   -1.1070   -0.1375 H   0  0  0  0  0  0  0  0  0  0  0  0
    5.0488   -0.7775    1.4291 H   0  0  0  0  0  0  0  0  0  0  0  0
  1  8  1  0  0  0  0
  1 29  1  0  0  0  0
  2  3  1  0  0  0  0
  2  4  1  0  0  0  0
  2 12  1  0  0  0  0
  2 13  1  0  0  0  0
  3  5  1  0  0  0  0
  3 14  1  0  0  0  0
  3 15  1  0  0  0  0
  4  6  1  0  0  0  0
  4 16  1  0  0  0  0
  4 17  1  0  0  0  0
  5  7  1  0  0  0  0
  5 18  1  0  0  0  0
  5 19  1  0  0  0  0
  6  8  1  0  0  0  0
  6 20  1  0  0  0  0
  6 21  1  0  0  0  0
  7  9  1  0  0  0  0
  7 22  1  0  0  0  0
  7 23  1  0  0  0  0
  8 10  1  0  0  0  0
  8 24  1  1  0  0  0
  9 25  1  0  0  0  0
  9 26  1  0  0  0  0
  9 27  1  0  0  0  0
 10 11  2  0  0  0  0
 10 28  1  0  0  0  0
 11 30  1  0  0  0  0
 11 31  1  0  0  0  0
M  END
>  <PUBCHEM_COMPOUND_CID>
170977

>  <PUBCHEM_CONFORMER_RMSD>
0.6

>  <PUBCHEM_CONFORMER_DIVERSEORDER>
1
356
3
379
162
370
347
265
7
158
33
306
382
2
177
71
416
319
95
399
233
146
338
215
67
317
77
105
284
253
94
417
15
330
305
389
29
384
255
259
419
165
91
211
412
325
172
56
402
143
199
266
278
312
267
299
373
393
50
383
360
242
381
226
196
421
53
181
13
405
160
86
340
159
260
171
401
18
336
288
9
343
371
112
187
186
236
400
344
10
369
11
374
6
313
119
68
5
279
415
222
359
114
129
296
357
231
345
28
395
16
300
262
318
120
235
38
388
326
89
200
335
230
24
49
26
193
234
304
293
221
8
286
410
209
131
322
123
271
92
167
358
283
101
409
307
155
365
88
396
223
256
169
328
174
42
321
404
217
391
291
188
61
237
339
333
138
403
4
216
87
387
69
97
334
130
376
31
137
240
368
104
314
407
276
364
14
397
12
124
103
79
392
309
46
301
62
337
414
292
136
363
73
310
348
22
198
133
252
341
82
99
316
390
134
34
204
332
64
272
380
303
80
183
385
17
315
377
21
282
324
121
277
41
206
220
294
149
298
251
287
107
361
106
19
281
420
289
96
108
48
51
210
57
285
25
349
366
225
93
109
367
353
219
139
297
411
354
372
70
23
398
128
47
191
122
418
37
154
153
250
179
269
43
329
218
116
85
192
351
166
212
66
201
378
35
408
263
185
386
320
27
208
176
59
275
302
74
30
142
125
323
197
78
394
151
40
239
327
84
157
227
274
290
164
76
270
214
141
65
60
273
180
308
54
83
249
311
36
246
58
72
331
175
132
20
241
113
55
258
362
257
203
75
44
184
205
32
178
161
110
163
280
413
102
248
254
229
224
98
147
81
268
135
261
244
145
247
202
207
238
126
245
375
406
148
150
355
152
195
63
264
127
232
350
189
140
144
346
228
100
342
45
352
156
118
190
295
243
170
213
182
168
39
173
115
194
111
90
117
52

>  <PUBCHEM_MMFF94_PARTIAL_CHARGES>
8
1 -0.68
10 -0.29
11 -0.3
28 0.15
29 0.4
30 0.15
31 0.15
8 0.42

>  <PUBCHEM_EFFECTIVE_ROTOR_COUNT>
7

>  <PUBCHEM_PHARMACOPHORE_FEATURES>
6
1 1 acceptor
1 1 donor
1 11 hydrophobe
1 9 hydrophobe
3 2 4 6 hydrophobe
3 3 5 7 hydrophobe

>  <PUBCHEM_HEAVY_ATOM_COUNT>
11

>  <PUBCHEM_ATOM_DEF_STEREO_COUNT>
0

>  <PUBCHEM_ATOM_UDEF_STEREO_COUNT>
1

>  <PUBCHEM_BOND_DEF_STEREO_COUNT>
0

>  <PUBCHEM_BOND_UDEF_STEREO_COUNT>
0

>  <PUBCHEM_ISOTOPIC_ATOM_COUNT>
0

>  <PUBCHEM_COMPONENT_COUNT>
1

>  <PUBCHEM_CACTVS_TAUTO_COUNT>
1

>  <PUBCHEM_CONFORMER_ID>
00029BE100000003

>  <PUBCHEM_MMFF94_ENERGY>
3.1462

>  <PUBCHEM_FEATURE_SELFOVERLAP>
30.528

>  <PUBCHEM_SHAPE_FINGERPRINT>
10680689 15 15285356237060882839
11401426 45 17132111342607907775
114248 4 10231753392310514591
14123238 8 11239997853983445027
14251718 22 10807928271706695855
14251731 8 18411982442482820623
15242439 84 18186239536994098739
15501527 16 18411420584058085241
17834072 33 18342175609145745127
17834072 8 18343867697041935845
17834076 25 17313104146579504291
18186145 218 17749380511778100449
190213 19 17275110543445382687
19433438 28 18259705618744749849
20279233 1 13686302408593756756
20645477 70 17988649536588163711
20719005 15 18411982472721781875
20767249 13 15339117939973689647
20828058 21 14418126309880793150
21119208 17 18272652350417407987
212847 35 18334017202834589620
22485316 2 10231763275309817965
23218964 4 18335981986804854687
23402539 116 18131344207216813845
23402655 69 18272371983531736340
42 15 18260267447200010318
42788 4 18409730664075497451
522135 26 17967533480559345894

>  <PUBCHEM_SHAPE_MULTIPOLES>
220.51
12.31
1.12
0.68
2.51
0.35
0
0.23
-0.35
0.07
0.05
-0.04
-0.03
-0.05

>  <PUBCHEM_SHAPE_SELFOVERLAP>
394.913

>  <PUBCHEM_SHAPE_VOLUME>
142.7

>  <PUBCHEM_COORDINATE_TYPE>
2
5
10

$$$$
