11693711
 OpenBabel05082101313D

 37 38  0  0  0  0  0  0  0  0999 V2000
    0.0926    2.3268    0.4125 S   0  0  0  0  0  0  0  0  0  0  0  0
    4.9673   -1.7443   -0.1714 F   0  0  0  0  0  0  0  0  0  0  0  0
    5.2209    0.4094   -0.2086 F   0  0  0  0  0  0  0  0  0  0  0  0
    4.5931   -0.5771    1.6248 F   0  0  0  0  0  0  0  0  0  0  0  0
   -1.4141    0.5508   -2.2929 O   0  0  0  0  0  0  0  0  0  0  0  0
    1.0844    3.3703    0.6195 O   0  0  0  0  0  0  0  0  0  0  0  0
   -1.0224    2.5539   -0.4943 O   0  0  0  0  0  0  0  0  0  0  0  0
   -3.9829    0.9868   -0.9595 O   0  0  0  0  0  0  0  0  0  0  0  0
   -4.2411   -0.7674    0.5837 N   0  0  0  0  0  0  0  0  0  0  0  0
   -3.3653   -1.6849    1.0778 N   0  0  0  0  0  0  0  0  0  0  0  0
    0.9384    0.8780   -0.0887 C   0  0  0  0  0  0  0  0  0  0  0  0
    0.3353   -0.1168   -0.8237 C   0  0  0  0  0  0  0  0  0  0  0  0
   -2.1697   -0.4916   -0.3868 C   0  0  0  0  0  0  0  0  0  0  0  0
   -1.0967    0.0090   -1.2288 C   0  0  0  0  0  0  0  0  0  0  0  0
   -2.1465   -1.5286    0.4686 C   0  0  0  0  0  0  0  0  0  0  0  0
    2.2774    0.7265    0.2717 C   0  0  0  0  0  0  0  0  0  0  0  0
   -3.5693    0.0352   -0.3192 C   0  0  0  0  0  0  0  0  0  0  0  0
    2.9782   -0.4164   -0.1129 C   0  0  0  0  0  0  0  0  0  0  0  0
    1.0011   -1.2569   -1.2182 C   0  0  0  0  0  0  0  0  0  0  0  0
    2.3400   -1.4082   -0.8578 C   0  0  0  0  0  0  0  0  0  0  0  0
   -1.0353   -2.4672    0.7809 C   0  0  0  0  0  0  0  0  0  0  0  0
   -0.5991    1.9036    1.9941 C   0  0  0  0  0  0  0  0  0  0  0  0
   -5.5960   -0.7120    1.0568 C   0  0  0  0  0  0  0  0  0  0  0  0
    4.4097   -0.5788    0.2723 C   0  0  0  0  0  0  0  0  0  0  0  0
    2.7875    1.4856    0.8593 H   0  0  0  0  0  0  0  0  0  0  0  0
    0.5186   -2.0233   -1.8171 H   0  0  0  0  0  0  0  0  0  0  0  0
   -3.6648   -2.5476    1.5102 H   0  0  0  0  0  0  0  0  0  0  0  0
    2.8702   -2.3035   -1.1706 H   0  0  0  0  0  0  0  0  0  0  0  0
   -0.7302   -3.0306   -0.1040 H   0  0  0  0  0  0  0  0  0  0  0  0
   -1.3606   -3.2124    1.5170 H   0  0  0  0  0  0  0  0  0  0  0  0
   -0.1848   -1.9499    1.2320 H   0  0  0  0  0  0  0  0  0  0  0  0
    0.2121    1.6421    2.6762 H   0  0  0  0  0  0  0  0  0  0  0  0
   -1.1318    2.7787    2.3730 H   0  0  0  0  0  0  0  0  0  0  0  0
   -1.2925    1.0712    1.8836 H   0  0  0  0  0  0  0  0  0  0  0  0
   -6.1341    0.0890    0.5432 H   0  0  0  0  0  0  0  0  0  0  0  0
   -5.5916   -0.5151    2.1325 H   0  0  0  0  0  0  0  0  0  0  0  0
   -6.0856   -1.6689    0.8569 H   0  0  0  0  0  0  0  0  0  0  0  0
  1  6  2  0  0  0  0
  1  7  2  0  0  0  0
  1 11  1  0  0  0  0
  1 22  1  0  0  0  0
  2 24  1  0  0  0  0
  3 24  1  0  0  0  0
  4 24  1  0  0  0  0
  5 14  2  0  0  0  0
  8 17  2  0  0  0  0
  9 10  1  0  0  0  0
  9 17  1  0  0  0  0
  9 23  1  0  0  0  0
 10 15  1  0  0  0  0
 10 27  1  0  0  0  0
 11 12  2  0  0  0  0
 11 16  1  0  0  0  0
 12 14  1  0  0  0  0
 12 19  1  0  0  0  0
 13 14  1  0  0  0  0
 13 15  2  0  0  0  0
 13 17  1  0  0  0  0
 15 21  1  0  0  0  0
 16 18  2  0  0  0  0
 16 25  1  0  0  0  0
 18 20  1  0  0  0  0
 18 24  1  0  0  0  0
 19 20  2  0  0  0  0
 19 26  1  0  0  0  0
 20 28  1  0  0  0  0
 21 29  1  0  0  0  0
 21 30  1  0  0  0  0
 21 31  1  0  0  0  0
 22 32  1  0  0  0  0
 22 33  1  0  0  0  0
 22 34  1  0  0  0  0
 23 35  1  0  0  0  0
 23 36  1  0  0  0  0
 23 37  1  0  0  0  0
M  END
>  <PUBCHEM_COMPOUND_CID>
11693711

>  <PUBCHEM_CONFORMER_RMSD>
0.8

>  <PUBCHEM_CONFORMER_DIVERSEORDER>
1
10
8
14
9
15
4
13
16
3
11
6
5
12
7
2

>  <PUBCHEM_MMFF94_PARTIAL_CHARGES>
28
1 1.2
10 -0.52
11 -0.01
12 0.09
13 0.03
14 0.47
15 -0.04
16 -0.15
17 0.62
18 -0.14
19 -0.15
2 -0.34
20 -0.15
21 0.14
22 0.11
23 0.3
24 1.16
25 0.15
26 0.15
27 0.4
28 0.15
3 -0.34
4 -0.34
5 -0.57
6 -0.65
7 -0.65
8 -0.57
9 -0.34

>  <PUBCHEM_EFFECTIVE_ROTOR_COUNT>
4

>  <PUBCHEM_PHARMACOPHORE_FEATURES>
7
1 10 donor
1 5 acceptor
1 6 acceptor
1 7 acceptor
1 8 acceptor
5 9 10 13 15 17 rings
6 11 12 16 18 19 20 rings

>  <PUBCHEM_HEAVY_ATOM_COUNT>
24

>  <PUBCHEM_ATOM_DEF_STEREO_COUNT>
0

>  <PUBCHEM_ATOM_UDEF_STEREO_COUNT>
0

>  <PUBCHEM_BOND_DEF_STEREO_COUNT>
0

>  <PUBCHEM_BOND_UDEF_STEREO_COUNT>
0

>  <PUBCHEM_ISOTOPIC_ATOM_COUNT>
0

>  <PUBCHEM_COMPONENT_COUNT>
1

>  <PUBCHEM_CACTVS_TAUTO_COUNT>
7

>  <PUBCHEM_CONFORMER_ID>
00B26E8F00000008

>  <PUBCHEM_MMFF94_ENERGY>
68.444

>  <PUBCHEM_FEATURE_SELFOVERLAP>
35.548

>  <PUBCHEM_SHAPE_FINGERPRINT>
10906281 52 18271542921710424957
11646440 116 18272100396155408107
12035758 1 18410853304213010763
12236239 1 15285357314775999079
12507560 18 18408324388999069027
12553582 1 18343294886386856902
12633257 1 18341061816883656835
12714826 92 17967525770486518334
12788726 201 18339641127448583304
13134695 92 17846498179490411145
13140716 1 18057040422297206786
13965767 371 15910835356487260819
14466204 15 18338524032609773833
14787075 74 18115588304786760750
14790565 3 17546167862670030696
14955137 171 17560250239677077598
15238133 3 18270699605261643933
16945 1 17614282590629417941
17804303 29 18187370977794037403
17980427 23 17417267480227964289
18186145 218 12324246087196910743
18785283 64 18194124246514842785
19784866 135 17385719205913518835
20510252 161 18337390431219738686
20600515 1 18334870402087352805
21033648 29 17203318979871797211
21041028 32 18272091599487826985
21304253 335 16772695238421923713
22182313 1 17701823185519333868
23175994 123 18413110554340090301
23184049 59 17775569749175391159
23402539 116 18272083890364045375
23419403 2 18336529616636818517
23558518 356 17694787315918393780
23559900 14 18186798127408184213
3286 77 18267021846314736343
69474 34 18343582979349222248
81228 2 18054810402368317508

>  <PUBCHEM_SHAPE_MULTIPOLES>
442.5
8.99
2.59
1.45
1.58
1.69
-0.08
-3.89
2.47
0.24
0.68
-0.51
0.14
0.8

>  <PUBCHEM_SHAPE_SELFOVERLAP>
943.65

>  <PUBCHEM_SHAPE_VOLUME>
251

>  <PUBCHEM_COORDINATE_TYPE>
2
5
10

$$$$
