5352876
 OpenBabel05082101313D

 21 20  0  0  0  0  0  0  0  0999 V2000
   -3.1312    0.8924   -0.0584 O   0  0  0  0  0  0  0  0  0  0  0  0
    3.3875    0.0365    0.4682 C   0  0  0  0  0  0  0  0  0  0  0  0
    1.8879    0.0716    0.5164 C   0  0  0  0  0  0  0  0  0  0  0  0
    3.8865   -0.9606   -0.5662 C   0  0  0  0  0  0  0  0  0  0  0  0
    1.1398    0.8919   -0.2367 C   0  0  0  0  0  0  0  0  0  0  0  0
   -0.3057    0.9230   -0.1780 C   0  0  0  0  0  0  0  0  0  0  0  0
   -1.0464   -0.1875   -0.0650 C   0  0  0  0  0  0  0  0  0  0  0  0
   -2.5345   -0.1833   -0.0038 C   0  0  0  0  0  0  0  0  0  0  0  0
   -3.2839   -1.4841    0.1235 C   0  0  0  0  0  0  0  0  0  0  0  0
    3.7716   -0.2275    1.4600 H   0  0  0  0  0  0  0  0  0  0  0  0
    3.7845    1.0316    0.2339 H   0  0  0  0  0  0  0  0  0  0  0  0
    1.4228   -0.6313    1.2036 H   0  0  0  0  0  0  0  0  0  0  0  0
    4.9810   -0.9827   -0.5714 H   0  0  0  0  0  0  0  0  0  0  0  0
    3.5292   -1.9722   -0.3453 H   0  0  0  0  0  0  0  0  0  0  0  0
    3.5499   -0.6922   -1.5733 H   0  0  0  0  0  0  0  0  0  0  0  0
    1.6091    1.6089   -0.9040 H   0  0  0  0  0  0  0  0  0  0  0  0
   -0.7645    1.9030   -0.2653 H   0  0  0  0  0  0  0  0  0  0  0  0
   -0.5852   -1.1695   -0.0118 H   0  0  0  0  0  0  0  0  0  0  0  0
   -2.5957   -2.3327    0.1578 H   0  0  0  0  0  0  0  0  0  0  0  0
   -3.8689   -1.4731    1.0468 H   0  0  0  0  0  0  0  0  0  0  0  0
   -3.9430   -1.6052   -0.7401 H   0  0  0  0  0  0  0  0  0  0  0  0
  1  8  2  0  0  0  0
  2  3  1  0  0  0  0
  2  4  1  0  0  0  0
  2 10  1  0  0  0  0
  2 11  1  0  0  0  0
  3  5  2  0  0  0  0
  3 12  1  0  0  0  0
  4 13  1  0  0  0  0
  4 14  1  0  0  0  0
  4 15  1  0  0  0  0
  5  6  1  0  0  0  0
  5 16  1  0  0  0  0
  6  7  2  0  0  0  0
  6 17  1  0  0  0  0
  7  8  1  0  0  0  0
  7 18  1  0  0  0  0
  8  9  1  0  0  0  0
  9 19  1  0  0  0  0
  9 20  1  0  0  0  0
  9 21  1  0  0  0  0
M  END
>  <PUBCHEM_COMPOUND_CID>
5352876

>  <PUBCHEM_CONFORMER_RMSD>
0.6

>  <PUBCHEM_CONFORMER_DIVERSEORDER>
2
6
7
12
11
8
10
5
1
9
3
4

>  <PUBCHEM_MMFF94_PARTIAL_CHARGES>
12
1 -0.57
12 0.15
16 0.15
17 0.15
18 0.15
2 0.14
3 -0.29
5 -0.15
6 -0.15
7 -0.14
8 0.49
9 0.06

>  <PUBCHEM_EFFECTIVE_ROTOR_COUNT>
3

>  <PUBCHEM_PHARMACOPHORE_FEATURES>
2
1 1 acceptor
1 4 hydrophobe

>  <PUBCHEM_HEAVY_ATOM_COUNT>
9

>  <PUBCHEM_ATOM_DEF_STEREO_COUNT>
0

>  <PUBCHEM_ATOM_UDEF_STEREO_COUNT>
0

>  <PUBCHEM_BOND_DEF_STEREO_COUNT>
2

>  <PUBCHEM_BOND_UDEF_STEREO_COUNT>
0

>  <PUBCHEM_ISOTOPIC_ATOM_COUNT>
0

>  <PUBCHEM_COMPONENT_COUNT>
1

>  <PUBCHEM_CACTVS_TAUTO_COUNT>
2

>  <PUBCHEM_CONFORMER_ID>
0051ADAC00000007

>  <PUBCHEM_MMFF94_ENERGY>
10.4658

>  <PUBCHEM_FEATURE_SELFOVERLAP>
10.148

>  <PUBCHEM_SHAPE_FINGERPRINT>
10219947 1 16702300157140932864
11062470 55 18412823577552614256
12032990 46 18411985775361786882
124424 183 17418090979771331577
12932764 1 17313092055893339541
14251710 61 18337679718721271091
14325111 11 18411135861415912944
14390081 3 9439410133189409623
14577589 140 18201996621067886807
177051 138 18342175608860869383
18186145 218 11746930945865925580
190213 19 18412542115523959552
20281407 28 18410857638040551850
20871999 31 13840552925383544227
21293036 1 13479136804122772488
22485316 2 18408881820040768818
449060 50 17774715485045019792

>  <PUBCHEM_SHAPE_MULTIPOLES>
179.35
7.12
1.23
0.71
1.53
0.2
-0.01
2.6
0.09
-0.5
0.08
0.3
0.04
0.32

>  <PUBCHEM_SHAPE_SELFOVERLAP>
332.04

>  <PUBCHEM_SHAPE_VOLUME>
113

>  <PUBCHEM_COORDINATE_TYPE>
2
5
10

$$$$
