121596001
 OpenBabel05082101323D

 55 57  0  0  1  0  0  0  0  0999 V2000
   -3.2978   -1.9077    0.1286 O   0  0  0  0  0  0  0  0  0  0  0  0
   -2.1688   -1.4689   -1.8345 O   0  0  0  0  0  0  0  0  0  0  0  0
    2.9472    1.5603    0.2925 C   0  0  1  0  0  0  0  0  0  0  0  0
    2.6631    0.1006    0.7823 C   0  0  2  0  0  0  0  0  0  0  0  0
    4.2818    0.3662   -1.0437 C   0  0  1  0  0  0  0  0  0  0  0  0
    4.4458    1.5116   -0.0468 C   0  0  0  0  0  0  0  0  0  0  0  0
    2.3696    1.8267   -1.1163 C   0  0  0  0  0  0  0  0  0  0  0  0
    3.5764   -0.6582   -0.1750 C   0  0  0  0  0  0  0  0  0  0  0  0
    3.2476    0.9451   -2.0237 C   0  0  0  0  0  0  0  0  0  0  0  0
    1.1905   -0.3116    0.6495 C   0  0  0  0  0  0  0  0  0  0  0  0
    3.0917   -0.0790    2.2504 C   0  0  0  0  0  0  0  0  0  0  0  0
    3.7696   -1.9805   -0.2333 C   0  0  0  0  0  0  0  0  0  0  0  0
    0.9098   -1.5884    1.4309 C   0  0  0  0  0  0  0  0  0  0  0  0
   -0.5344   -1.9830    1.3052 C   0  0  0  0  0  0  0  0  0  0  0  0
   -1.0915   -2.7852    0.3776 C   0  0  0  0  0  0  0  0  0  0  0  0
   -2.5581   -3.1103    0.2928 C   0  0  0  0  0  0  0  0  0  0  0  0
   -0.2387   -3.4038   -0.6999 C   0  0  0  0  0  0  0  0  0  0  0  0
   -3.0025   -1.1716   -0.9896 C   0  0  0  0  0  0  0  0  0  0  0  0
   -3.8692    0.0649   -1.0122 C   0  0  0  0  0  0  0  0  0  0  0  0
   -3.2216    1.2491   -0.3423 C   0  0  0  0  0  0  0  0  0  0  0  0
   -3.4146    1.4712    1.0212 C   0  0  0  0  0  0  0  0  0  0  0  0
   -2.4289    2.1233   -1.0858 C   0  0  0  0  0  0  0  0  0  0  0  0
   -2.8151    2.5676    1.6412 C   0  0  0  0  0  0  0  0  0  0  0  0
   -1.8294    3.2197   -0.4662 C   0  0  0  0  0  0  0  0  0  0  0  0
   -2.0225    3.4419    0.8974 C   0  0  0  0  0  0  0  0  0  0  0  0
    2.6701    2.3292    1.0184 H   0  0  0  0  0  0  0  0  0  0  0  0
    5.2045    0.0180   -1.5116 H   0  0  0  0  0  0  0  0  0  0  0  0
    5.0981    1.2683    0.7967 H   0  0  0  0  0  0  0  0  0  0  0  0
    4.8090    2.4349   -0.5130 H   0  0  0  0  0  0  0  0  0  0  0  0
    2.5014    2.8816   -1.3863 H   0  0  0  0  0  0  0  0  0  0  0  0
    1.3051    1.5991   -1.2115 H   0  0  0  0  0  0  0  0  0  0  0  0
    2.6621    0.1691   -2.5285 H   0  0  0  0  0  0  0  0  0  0  0  0
    3.7326    1.5608   -2.7894 H   0  0  0  0  0  0  0  0  0  0  0  0
    0.9132   -0.4549   -0.4023 H   0  0  0  0  0  0  0  0  0  0  0  0
    0.5504    0.4938    1.0350 H   0  0  0  0  0  0  0  0  0  0  0  0
    2.3864    0.4131    2.9305 H   0  0  0  0  0  0  0  0  0  0  0  0
    4.0687    0.3740    2.4502 H   0  0  0  0  0  0  0  0  0  0  0  0
    3.1982   -1.1288    2.5444 H   0  0  0  0  0  0  0  0  0  0  0  0
    3.3186   -2.6922    0.4391 H   0  0  0  0  0  0  0  0  0  0  0  0
    4.4615   -2.3907   -0.9631 H   0  0  0  0  0  0  0  0  0  0  0  0
    1.5229   -2.4363    1.1399 H   0  0  0  0  0  0  0  0  0  0  0  0
    1.0678   -1.4522    2.5064 H   0  0  0  0  0  0  0  0  0  0  0  0
   -1.1970   -1.5403    2.0481 H   0  0  0  0  0  0  0  0  0  0  0  0
   -2.8861   -3.5872    1.2228 H   0  0  0  0  0  0  0  0  0  0  0  0
   -2.7969   -3.8026   -0.5226 H   0  0  0  0  0  0  0  0  0  0  0  0
    0.0473   -4.4184   -0.4027 H   0  0  0  0  0  0  0  0  0  0  0  0
    0.6716   -2.8378   -0.9134 H   0  0  0  0  0  0  0  0  0  0  0  0
   -0.7773   -3.4844   -1.6491 H   0  0  0  0  0  0  0  0  0  0  0  0
   -4.8407   -0.1577   -0.5529 H   0  0  0  0  0  0  0  0  0  0  0  0
   -4.1013    0.2951   -2.0597 H   0  0  0  0  0  0  0  0  0  0  0  0
   -4.0283    0.7958    1.6113 H   0  0  0  0  0  0  0  0  0  0  0  0
   -2.2686    1.9592   -2.1481 H   0  0  0  0  0  0  0  0  0  0  0  0
   -2.9645    2.7400    2.7030 H   0  0  0  0  0  0  0  0  0  0  0  0
   -1.2104    3.8992   -1.0447 H   0  0  0  0  0  0  0  0  0  0  0  0
   -1.5547    4.2949    1.3801 H   0  0  0  0  0  0  0  0  0  0  0  0
  1 16  1  0  0  0  0
  1 18  1  0  0  0  0
  2 18  2  0  0  0  0
  3  4  1  0  0  0  0
  3  6  1  0  0  0  0
  3  7  1  0  0  0  0
  3 26  1  1  0  0  0
  4  8  1  0  0  0  0
  4 10  1  6  0  0  0
  4 11  1  0  0  0  0
  5  6  1  0  0  0  0
  5  8  1  0  0  0  0
  5  9  1  0  0  0  0
  5 27  1  6  0  0  0
  6 28  1  0  0  0  0
  6 29  1  0  0  0  0
  7  9  1  0  0  0  0
  7 30  1  0  0  0  0
  7 31  1  0  0  0  0
  8 12  2  0  0  0  0
  9 32  1  0  0  0  0
  9 33  1  0  0  0  0
 10 13  1  0  0  0  0
 10 34  1  0  0  0  0
 10 35  1  0  0  0  0
 11 36  1  0  0  0  0
 11 37  1  0  0  0  0
 11 38  1  0  0  0  0
 12 39  1  0  0  0  0
 12 40  1  0  0  0  0
 13 14  1  0  0  0  0
 13 41  1  0  0  0  0
 13 42  1  0  0  0  0
 14 15  2  0  0  0  0
 14 43  1  0  0  0  0
 15 16  1  0  0  0  0
 15 17  1  0  0  0  0
 16 44  1  0  0  0  0
 16 45  1  0  0  0  0
 17 46  1  0  0  0  0
 17 47  1  0  0  0  0
 17 48  1  0  0  0  0
 18 19  1  0  0  0  0
 19 20  1  0  0  0  0
 19 49  1  0  0  0  0
 19 50  1  0  0  0  0
 20 21  2  0  0  0  0
 20 22  1  0  0  0  0
 21 23  1  0  0  0  0
 21 51  1  0  0  0  0
 22 24  2  0  0  0  0
 22 52  1  0  0  0  0
 23 25  2  0  0  0  0
 23 53  1  0  0  0  0
 24 25  1  0  0  0  0
 24 54  1  0  0  0  0
 25 55  1  0  0  0  0
M  END
>  <PUBCHEM_COMPOUND_CID>
121596001

>  <PUBCHEM_CONFORMER_RMSD>
1.2

>  <PUBCHEM_CONFORMER_DIVERSEORDER>
2
147
127
163
39
62
133
94
29
103
142
111
69
59
41
125
16
117
144
13
8
50
9
74
129
174
66
30
56
64
101
14
49
86
61
93
12
35
75
72
18
1
51
155
153
43
115
99
77
140
10
126
108
70
104
33
85
32
22
4
136
106
44
171
25
114
154
78
148
45
91
110
122
11
105
124
31
46
47
71
90
36
158
96
164
145
80
167
76
143
119
102
98
89
19
79
15
138
128
38
162
65
73
169
63
112
84
123
7
131
165
151
53
173
54
135
159
130
34
27
6
107
172
67
156
141
170
161
113
146
26
21
28
82
149
120
157
97
83
118
160
88
132
139
60
40
5
48
42
23
52
121
87
95
168
134
150
166
37
109
100
137
17
55
20
24
81
3
57
92
152
58
68
116

>  <PUBCHEM_MMFF94_PARTIAL_CHARGES>
27
1 -0.43
12 -0.3
13 0.14
14 -0.29
15 -0.28
16 0.42
17 0.14
18 0.66
19 0.2
2 -0.57
20 -0.14
21 -0.15
22 -0.15
23 -0.15
24 -0.15
25 -0.15
39 0.15
4 0.14
40 0.15
43 0.15
5 0.14
51 0.15
52 0.15
53 0.15
54 0.15
55 0.15
8 -0.28

>  <PUBCHEM_EFFECTIVE_ROTOR_COUNT>
8.8

>  <PUBCHEM_PHARMACOPHORE_FEATURES>
4
1 17 hydrophobe
1 2 acceptor
6 20 21 22 23 24 25 rings
7 3 4 5 6 7 8 9 rings

>  <PUBCHEM_HEAVY_ATOM_COUNT>
25

>  <PUBCHEM_ATOM_DEF_STEREO_COUNT>
0

>  <PUBCHEM_ATOM_UDEF_STEREO_COUNT>
3

>  <PUBCHEM_BOND_DEF_STEREO_COUNT>
1

>  <PUBCHEM_BOND_UDEF_STEREO_COUNT>
0

>  <PUBCHEM_ISOTOPIC_ATOM_COUNT>
0

>  <PUBCHEM_COMPONENT_COUNT>
1

>  <PUBCHEM_CACTVS_TAUTO_COUNT>
4

>  <PUBCHEM_CONFORMER_ID>
073F68610000007F

>  <PUBCHEM_MMFF94_ENERGY>
78.3934

>  <PUBCHEM_FEATURE_SELFOVERLAP>
20.297

>  <PUBCHEM_SHAPE_FINGERPRINT>
10498660 4 18335128821879961039
11578080 2 17917995022977793520
12156800 1 16671694203051803523
12788726 201 18262516030041149211
13122387 1 18050282566198265301
13224815 77 18260544519782670456
13994607 96 17676784153090467147
14123250 116 18409731759429301633
14251751 93 18267584615457187149
14251757 17 16773514365409145134
14713325 29 18338249222789745371
14840074 17 18114195111917179317
151778 21 17837221376511707345
15297060 5 18343029877882444009
17818456 19 18265030523456622114
19930381 70 16752969260579227695
20775438 99 16471732848070356391
21141583 151 18194682794137029969
21864079 5 18041277669014301000
22749437 52 18334564733459506439
22907989 373 18339372975265050767
23557571 272 18122620819501329794
3459 110 11314604198053846590
3459 83 18188776025195933798
35225 105 18270100375529485461
469060 322 15575852796555139667
5048184 11 18336547092937892789
5895379 119 18410005538383663912
6287921 2 18122354471457347171

>  <PUBCHEM_SHAPE_MULTIPOLES>
502.75
8.6
4.35
1.74
3.64
0.72
-0.16
-2.75
1.3
-3.78
-0.24
0.35
-0.26
-1.23

>  <PUBCHEM_SHAPE_SELFOVERLAP>
1061.891

>  <PUBCHEM_SHAPE_VOLUME>
286.2

>  <PUBCHEM_COORDINATE_TYPE>
2
5
10

$$$$
