7848
 OpenBabel05082101303D

 12 11  0  0  0  0  0  0  0  0999 V2000
    1.6745    0.6137   -0.1234 S   0  0  0  0  0  0  0  0  0  0  0  0
   -0.7998   -0.5663   -0.3340 C   0  0  0  0  0  0  0  0  0  0  0  0
    0.5732   -0.7665    0.2977 C   0  0  0  0  0  0  0  0  0  0  0  0
   -1.4478    0.7191    0.1597 C   0  0  0  0  0  0  0  0  0  0  0  0
   -0.7338   -0.5573   -1.4283 H   0  0  0  0  0  0  0  0  0  0  0  0
   -1.4380   -1.4151   -0.0613 H   0  0  0  0  0  0  0  0  0  0  0  0
    0.4941   -0.8336    1.3874 H   0  0  0  0  0  0  0  0  0  0  0  0
    1.0214   -1.6963   -0.0658 H   0  0  0  0  0  0  0  0  0  0  0  0
   -0.9700    1.6151   -0.2469 H   0  0  0  0  0  0  0  0  0  0  0  0
   -2.4946    0.7470   -0.1623 H   0  0  0  0  0  0  0  0  0  0  0  0
   -1.4374    0.7789    1.2529 H   0  0  0  0  0  0  0  0  0  0  0  0
    1.6552    0.4284   -1.4515 H   0  0  0  0  0  0  0  0  0  0  0  0
  1  3  1  0  0  0  0
  1 12  1  0  0  0  0
  2  3  1  0  0  0  0
  2  4  1  0  0  0  0
  2  5  1  0  0  0  0
  2  6  1  0  0  0  0
  3  7  1  0  0  0  0
  3  8  1  0  0  0  0
  4  9  1  0  0  0  0
  4 10  1  0  0  0  0
  4 11  1  0  0  0  0
M  END
>  <PUBCHEM_COMPOUND_CID>
7848

>  <PUBCHEM_CONFORMER_RMSD>
0.4

>  <PUBCHEM_CONFORMER_DIVERSEORDER>
1
3
2

>  <PUBCHEM_MMFF94_PARTIAL_CHARGES>
3
1 -0.41
12 0.18
3 0.23

>  <PUBCHEM_EFFECTIVE_ROTOR_COUNT>
1

>  <PUBCHEM_PHARMACOPHORE_FEATURES>
1
1 4 hydrophobe

>  <PUBCHEM_HEAVY_ATOM_COUNT>
4

>  <PUBCHEM_ATOM_DEF_STEREO_COUNT>
0

>  <PUBCHEM_ATOM_UDEF_STEREO_COUNT>
0

>  <PUBCHEM_BOND_DEF_STEREO_COUNT>
0

>  <PUBCHEM_BOND_UDEF_STEREO_COUNT>
0

>  <PUBCHEM_ISOTOPIC_ATOM_COUNT>
0

>  <PUBCHEM_COMPONENT_COUNT>
1

>  <PUBCHEM_CACTVS_TAUTO_COUNT>
1

>  <PUBCHEM_CONFORMER_ID>
00001EA800000002

>  <PUBCHEM_MMFF94_ENERGY>
0.1648

>  <PUBCHEM_FEATURE_SELFOVERLAP>
5.074

>  <PUBCHEM_SHAPE_FINGERPRINT>
139733 1 7996322025318276759
16714656 1 18129949021218435351
20096714 4 18410857637771649832
21015797 1 9222960304178672231
5943 1 11048506552365714111

>  <PUBCHEM_SHAPE_MULTIPOLES>
86.17
2.16
1.08
0.7
0.37
0
-0.01
0.65
-0.04
-0.03
0.03
0.02
-0.02
-0.14

>  <PUBCHEM_SHAPE_SELFOVERLAP>
131.434

>  <PUBCHEM_SHAPE_VOLUME>
63.1

>  <PUBCHEM_COORDINATE_TYPE>
2
5
10

$$$$
