125
 OpenBabel05082101303D

 17 17  0  0  0  0  0  0  0  0999 V2000
    3.1221   -0.7078   -0.0002 O   0  0  0  0  0  0  0  0  0  0  0  0
   -3.1275   -0.3503   -0.0002 O   0  0  0  0  0  0  0  0  0  0  0  0
    0.9710    0.3064    0.0001 C   0  0  0  0  0  0  0  0  0  0  0  0
    0.4734   -0.9966    0.0002 C   0  0  0  0  0  0  0  0  0  0  0  0
    0.0914    1.3891    0.0000 C   0  0  0  0  0  0  0  0  0  0  0  0
    2.4433    0.5421   -0.0001 C   0  0  0  0  0  0  0  0  0  0  0  0
   -0.9039   -1.2170    0.0001 C   0  0  0  0  0  0  0  0  0  0  0  0
   -1.2860    1.1686    0.0000 C   0  0  0  0  0  0  0  0  0  0  0  0
   -1.7837   -0.1345    0.0000 C   0  0  0  0  0  0  0  0  0  0  0  0
    1.1188   -1.8698    0.0002 H   0  0  0  0  0  0  0  0  0  0  0  0
    0.4694    2.4080   -0.0001 H   0  0  0  0  0  0  0  0  0  0  0  0
    2.7408    1.0959   -0.8962 H   0  0  0  0  0  0  0  0  0  0  0  0
    2.7409    1.0958    0.8961 H   0  0  0  0  0  0  0  0  0  0  0  0
   -1.2796   -2.2369    0.0000 H   0  0  0  0  0  0  0  0  0  0  0  0
   -1.9663    2.0160    0.0000 H   0  0  0  0  0  0  0  0  0  0  0  0
    4.0751   -0.5144   -0.0003 H   0  0  0  0  0  0  0  0  0  0  0  0
   -3.2928   -1.3088   -0.0001 H   0  0  0  0  0  0  0  0  0  0  0  0
  1  6  1  0  0  0  0
  1 16  1  0  0  0  0
  2  9  1  0  0  0  0
  2 17  1  0  0  0  0
  3  4  2  0  0  0  0
  3  5  1  0  0  0  0
  3  6  1  0  0  0  0
  4  7  1  0  0  0  0
  4 10  1  0  0  0  0
  5  8  2  0  0  0  0
  5 11  1  0  0  0  0
  6 12  1  0  0  0  0
  6 13  1  0  0  0  0
  7  9  2  0  0  0  0
  7 14  1  0  0  0  0
  8  9  1  0  0  0  0
  8 15  1  0  0  0  0
M  END
>  <PUBCHEM_COMPOUND_CID>
125

>  <PUBCHEM_CONFORMER_RMSD>
0.4

>  <PUBCHEM_CONFORMER_DIVERSEORDER>
1
2

>  <PUBCHEM_MMFF94_PARTIAL_CHARGES>
15
1 -0.68
10 0.15
11 0.15
14 0.15
15 0.15
16 0.4
17 0.45
2 -0.53
3 -0.14
4 -0.15
5 -0.15
6 0.42
7 -0.15
8 -0.15
9 0.08

>  <PUBCHEM_EFFECTIVE_ROTOR_COUNT>
1

>  <PUBCHEM_PHARMACOPHORE_FEATURES>
4
1 1 acceptor
1 1 donor
1 2 donor
6 3 4 5 7 8 9 rings

>  <PUBCHEM_HEAVY_ATOM_COUNT>
9

>  <PUBCHEM_ATOM_DEF_STEREO_COUNT>
0

>  <PUBCHEM_ATOM_UDEF_STEREO_COUNT>
0

>  <PUBCHEM_BOND_DEF_STEREO_COUNT>
0

>  <PUBCHEM_BOND_UDEF_STEREO_COUNT>
0

>  <PUBCHEM_ISOTOPIC_ATOM_COUNT>
0

>  <PUBCHEM_COMPONENT_COUNT>
1

>  <PUBCHEM_CACTVS_TAUTO_COUNT>
2

>  <PUBCHEM_CONFORMER_ID>
0000007D00000002

>  <PUBCHEM_MMFF94_ENERGY>
21.3497

>  <PUBCHEM_FEATURE_SELFOVERLAP>
20.297

>  <PUBCHEM_SHAPE_FINGERPRINT>
10857977 72 18339350950524973016
12032990 46 18409457993882243235
14325111 11 18410573980946356000
15310529 11 16443334377915181392
16714656 1 18410856568250842700
16945 1 18410575101869354341
193761 8 17689997830234797061
21040471 1 18410575054608993761
23235685 24 18410570695396471425
23402655 69 18195225747683116429
23552423 10 18188209922160958606
2748010 2 18122908629232938127
29004967 10 18334300893692424801
369184 2 14908178633980317926
5084963 1 18412262826511600800

>  <PUBCHEM_SHAPE_MULTIPOLES>
173.48
3.77
1.38
0.6
0.8
0.12
0
-0.54
0
-0.08
0
0
0.01
0

>  <PUBCHEM_SHAPE_SELFOVERLAP>
358.844

>  <PUBCHEM_SHAPE_VOLUME>
100

>  <PUBCHEM_COORDINATE_TYPE>
2
5
10

$$$$
