262
 OpenBabel05082101303D

 16 15  0  0  1  0  0  0  0  0999 V2000
   -1.6370    0.8209    0.4356 O   0  0  0  0  0  0  0  0  0  0  0  0
    1.6483   -0.8127    0.4346 O   0  0  0  0  0  0  0  0  0  0  0  0
   -0.7214   -0.2719    0.3982 C   0  0  2  0  0  0  0  0  0  0  0  0
    0.7162    0.2661    0.3932 C   0  0  2  0  0  0  0  0  0  0  0  0
   -1.0275   -1.1221   -0.8295 C   0  0  0  0  0  0  0  0  0  0  0  0
    1.0214    1.1197   -0.8320 C   0  0  0  0  0  0  0  0  0  0  0  0
   -0.8744   -0.8804    1.2971 H   0  0  0  0  0  0  0  0  0  0  0  0
    0.8724    0.8778    1.2891 H   0  0  0  0  0  0  0  0  0  0  0  0
   -1.0117   -0.5311   -1.7508 H   0  0  0  0  0  0  0  0  0  0  0  0
   -2.0438   -1.5263   -0.7543 H   0  0  0  0  0  0  0  0  0  0  0  0
   -0.3417   -1.9675   -0.9311 H   0  0  0  0  0  0  0  0  0  0  0  0
    2.0319    1.5364   -0.7490 H   0  0  0  0  0  0  0  0  0  0  0  0
    1.0162    0.5328   -1.7561 H   0  0  0  0  0  0  0  0  0  0  0  0
    0.3197    1.9526   -0.9346 H   0  0  0  0  0  0  0  0  0  0  0  0
   -2.5355    0.4502    0.4666 H   0  0  0  0  0  0  0  0  0  0  0  0
    1.6577   -1.2469   -0.4347 H   0  0  0  0  0  0  0  0  0  0  0  0
  1  3  1  0  0  0  0
  1 15  1  0  0  0  0
  2  4  1  0  0  0  0
  2 16  1  0  0  0  0
  3  4  1  0  0  0  0
  3  5  1  0  0  0  0
  3  7  1  1  0  0  0
  4  6  1  0  0  0  0
  4  8  1  1  0  0  0
  5  9  1  0  0  0  0
  5 10  1  0  0  0  0
  5 11  1  0  0  0  0
  6 12  1  0  0  0  0
  6 13  1  0  0  0  0
  6 14  1  0  0  0  0
M  END
>  <PUBCHEM_COMPOUND_CID>
262

>  <PUBCHEM_CONFORMER_RMSD>
0.4

>  <PUBCHEM_CONFORMER_DIVERSEORDER>
4
3
8
7
6
1
5
2

>  <PUBCHEM_MMFF94_PARTIAL_CHARGES>
6
1 -0.68
15 0.4
16 0.4
2 -0.68
3 0.28
4 0.28

>  <PUBCHEM_EFFECTIVE_ROTOR_COUNT>
1

>  <PUBCHEM_PHARMACOPHORE_FEATURES>
4
1 1 acceptor
1 1 donor
1 2 acceptor
1 2 donor

>  <PUBCHEM_HEAVY_ATOM_COUNT>
6

>  <PUBCHEM_ATOM_DEF_STEREO_COUNT>
0

>  <PUBCHEM_ATOM_UDEF_STEREO_COUNT>
2

>  <PUBCHEM_BOND_DEF_STEREO_COUNT>
0

>  <PUBCHEM_BOND_UDEF_STEREO_COUNT>
0

>  <PUBCHEM_ISOTOPIC_ATOM_COUNT>
0

>  <PUBCHEM_COMPONENT_COUNT>
1

>  <PUBCHEM_CACTVS_TAUTO_COUNT>
1

>  <PUBCHEM_CONFORMER_ID>
0000010600000008

>  <PUBCHEM_MMFF94_ENERGY>
8.5625

>  <PUBCHEM_FEATURE_SELFOVERLAP>
20.297

>  <PUBCHEM_SHAPE_FINGERPRINT>
139733 1 11311760809201963282
16714656 1 18049729520676759870
20096714 4 18261690258095896041
21015797 1 9294196524307185793
21040471 1 17917160390018980305
24536 1 17968651756250365864
29004967 10 17531250504693853536
5943 1 14064651789862468781

>  <PUBCHEM_SHAPE_MULTIPOLES>
111.74
1.9
1.22
0.94
0
0
-0.16
-0.01
-0.11
0
-0.07
0
0
-0.51

>  <PUBCHEM_SHAPE_SELFOVERLAP>
196.2

>  <PUBCHEM_SHAPE_VOLUME>
74.5

>  <PUBCHEM_COORDINATE_TYPE>
2
5
10

$$$$
