54048924
 OpenBabel05082101323D

 26 25  0  0  0  0  0  0  0  0999 V2000
    2.9397    1.3652   -0.4613 S   0  0  0  0  0  0  0  0  0  0  0  0
   -2.7444   -0.0507   -0.8235 O   0  0  0  0  0  0  0  0  0  0  0  0
   -1.9535   -1.8942    0.3165 O   0  0  0  0  0  0  0  0  0  0  0  0
    3.4350   -0.7026    1.1102 O   0  0  0  0  0  0  0  0  0  0  0  0
    0.3339    0.3987   -0.1480 C   0  0  0  0  0  0  0  0  0  0  0  0
   -0.9630    0.3017    0.6583 C   0  0  0  0  0  0  0  0  0  0  0  0
    1.3838    1.3176    0.4761 C   0  0  0  0  0  0  0  0  0  0  0  0
   -1.9257   -0.6989    0.0581 C   0  0  0  0  0  0  0  0  0  0  0  0
   -4.1436   -0.1209   -0.5309 C   0  0  0  0  0  0  0  0  0  0  0  0
   -4.5221    1.0493    0.3516 C   0  0  0  0  0  0  0  0  0  0  0  0
    3.6401   -0.1767    0.0230 C   0  0  0  0  0  0  0  0  0  0  0  0
    4.5198   -0.7884   -1.0302 C   0  0  0  0  0  0  0  0  0  0  0  0
    0.0951    0.7457   -1.1618 H   0  0  0  0  0  0  0  0  0  0  0  0
    0.7459   -0.6126   -0.2601 H   0  0  0  0  0  0  0  0  0  0  0  0
   -1.4472    1.2818    0.7360 H   0  0  0  0  0  0  0  0  0  0  0  0
   -0.7551   -0.0189    1.6860 H   0  0  0  0  0  0  0  0  0  0  0  0
    1.5847    1.0306    1.5136 H   0  0  0  0  0  0  0  0  0  0  0  0
    0.9911    2.3400    0.5042 H   0  0  0  0  0  0  0  0  0  0  0  0
   -4.6823   -0.0679   -1.4821 H   0  0  0  0  0  0  0  0  0  0  0  0
   -4.4011   -1.0727   -0.0527 H   0  0  0  0  0  0  0  0  0  0  0  0
   -4.0035    0.9973    1.3144 H   0  0  0  0  0  0  0  0  0  0  0  0
   -4.2341    1.9966   -0.1160 H   0  0  0  0  0  0  0  0  0  0  0  0
   -5.5996    1.0615    0.5387 H   0  0  0  0  0  0  0  0  0  0  0  0
    3.9430   -0.9857   -1.9381 H   0  0  0  0  0  0  0  0  0  0  0  0
    4.9161   -1.7393   -0.6612 H   0  0  0  0  0  0  0  0  0  0  0  0
    5.3623   -0.1275   -1.2520 H   0  0  0  0  0  0  0  0  0  0  0  0
  1  7  1  0  0  0  0
  1 11  1  0  0  0  0
  2  8  1  0  0  0  0
  2  9  1  0  0  0  0
  3  8  2  0  0  0  0
  4 11  2  0  0  0  0
  5  6  1  0  0  0  0
  5  7  1  0  0  0  0
  5 13  1  0  0  0  0
  5 14  1  0  0  0  0
  6  8  1  0  0  0  0
  6 15  1  0  0  0  0
  6 16  1  0  0  0  0
  7 17  1  0  0  0  0
  7 18  1  0  0  0  0
  9 10  1  0  0  0  0
  9 19  1  0  0  0  0
  9 20  1  0  0  0  0
 10 21  1  0  0  0  0
 10 22  1  0  0  0  0
 10 23  1  0  0  0  0
 11 12  1  0  0  0  0
 12 24  1  0  0  0  0
 12 25  1  0  0  0  0
 12 26  1  0  0  0  0
M  END
>  <PUBCHEM_COMPOUND_CID>
54048924

>  <PUBCHEM_CONFORMER_RMSD>
1

>  <PUBCHEM_CONFORMER_DIVERSEORDER>
1
48
70
67
56
39
40
62
45
2
68
19
13
66
47
43
28
35
15
64
18
16
41
63
55
14
3
42
26
57
52
54
53
10
27
69
29
5
21
61
4
59
23
17
60
7
46
11
34
50
30
31
38
36
22
25
20
49
6
51
33
44
37
12
65
24
58
9
32
8

>  <PUBCHEM_MMFF94_PARTIAL_CHARGES>
10
1 -0.37
11 0.65
12 0.06
2 -0.43
3 -0.57
4 -0.57
6 0.06
7 0.23
8 0.66
9 0.28

>  <PUBCHEM_EFFECTIVE_ROTOR_COUNT>
7

>  <PUBCHEM_PHARMACOPHORE_FEATURES>
2
1 3 acceptor
4 1 5 6 7 hydrophobe

>  <PUBCHEM_HEAVY_ATOM_COUNT>
12

>  <PUBCHEM_ATOM_DEF_STEREO_COUNT>
0

>  <PUBCHEM_ATOM_UDEF_STEREO_COUNT>
0

>  <PUBCHEM_BOND_DEF_STEREO_COUNT>
0

>  <PUBCHEM_BOND_UDEF_STEREO_COUNT>
0

>  <PUBCHEM_ISOTOPIC_ATOM_COUNT>
0

>  <PUBCHEM_COMPONENT_COUNT>
1

>  <PUBCHEM_CACTVS_TAUTO_COUNT>
1

>  <PUBCHEM_CONFORMER_ID>
0338B89C00000046

>  <PUBCHEM_MMFF94_ENERGY>
19.1511

>  <PUBCHEM_FEATURE_SELFOVERLAP>
10.148

>  <PUBCHEM_SHAPE_FINGERPRINT>
10130415 120 18413385449342773824
124424 183 18060139851318826417
12815109 37 18273493473003031456
12932764 1 16950827202477979545
13237642 15 9079111167989189069
14123238 8 16587747538053247887
177051 138 17561367275209206092
17834072 14 14620795994284122825
17834072 8 18411134706386364637
18186145 218 18113613512534860956
20279233 1 15985109617147501292
20528008 55 12319734778129721381
20621476 66 18200323125816673425
20645477 56 18114456885346055877
20645477 70 18341614845414885238
20742870 56 18408881845747353492
20828058 21 14418130716786192713
20871999 31 16154288233177072442
21119208 17 18259705597000667070
22485316 2 17561360707956375100
22854114 59 8358258146247339198
23402539 116 18060414695272467301
23402655 69 18260834834397954508
23559900 14 18201999962879815400
522135 26 17821726126623689000
5374978 207 11383837073283359447
58051976 100 18114465651252721319
6430166 295 18409162186858115665
93112 12 18187645855336822260
9882013 296 9367348141105022541

>  <PUBCHEM_SHAPE_MULTIPOLES>
233.2
9.84
1.42
0.94
1.11
0.06
0
0.53
-1.54
-0.14
0.08
-0.42
0.07
-0.05

>  <PUBCHEM_SHAPE_SELFOVERLAP>
419.511

>  <PUBCHEM_SHAPE_VOLUME>
150.6

>  <PUBCHEM_COORDINATE_TYPE>
2
5
10

$$$$
