61319
 OpenBabel05082101303D

 18 17  0  0  0  0  0  0  0  0999 V2000
   -0.2198   -0.4671   -1.1133 O   0  0  0  0  0  0  0  0  0  0  0  0
   -0.8421   -1.6499    0.7675 O   0  0  0  0  0  0  0  0  0  0  0  0
   -1.7088    0.5839    0.3572 C   0  0  0  0  0  0  0  0  0  0  0  0
   -1.0594    1.8435   -0.1891 C   0  0  0  0  0  0  0  0  0  0  0  0
   -0.8908   -0.6514    0.0624 C   0  0  0  0  0  0  0  0  0  0  0  0
    1.2071   -0.5335   -1.0253 C   0  0  0  0  0  0  0  0  0  0  0  0
    1.6800    0.5275   -0.0880 C   0  0  0  0  0  0  0  0  0  0  0  0
    1.8338    0.3470    1.2285 C   0  0  0  0  0  0  0  0  0  0  0  0
   -2.6971    0.4424   -0.0924 H   0  0  0  0  0  0  0  0  0  0  0  0
   -1.8287    0.6749    1.4416 H   0  0  0  0  0  0  0  0  0  0  0  0
   -0.7657    1.7855   -1.2407 H   0  0  0  0  0  0  0  0  0  0  0  0
   -1.7873    2.6617   -0.1230 H   0  0  0  0  0  0  0  0  0  0  0  0
   -0.2133    2.1641    0.4208 H   0  0  0  0  0  0  0  0  0  0  0  0
    1.5094   -1.5381   -0.7077 H   0  0  0  0  0  0  0  0  0  0  0  0
    1.6213   -0.3645   -2.0242 H   0  0  0  0  0  0  0  0  0  0  0  0
    1.9093    1.5014   -0.5124 H   0  0  0  0  0  0  0  0  0  0  0  0
    2.1797    1.1610    1.8562 H   0  0  0  0  0  0  0  0  0  0  0  0
    1.6293   -0.6067    1.7017 H   0  0  0  0  0  0  0  0  0  0  0  0
  1  5  1  0  0  0  0
  1  6  1  0  0  0  0
  2  5  2  0  0  0  0
  3  4  1  0  0  0  0
  3  5  1  0  0  0  0
  3  9  1  0  0  0  0
  3 10  1  0  0  0  0
  4 11  1  0  0  0  0
  4 12  1  0  0  0  0
  4 13  1  0  0  0  0
  6  7  1  0  0  0  0
  6 14  1  0  0  0  0
  6 15  1  0  0  0  0
  7  8  2  0  0  0  0
  7 16  1  0  0  0  0
  8 17  1  0  0  0  0
  8 18  1  0  0  0  0
M  END
>  <PUBCHEM_COMPOUND_CID>
61319

>  <PUBCHEM_CONFORMER_RMSD>
0.6

>  <PUBCHEM_CONFORMER_DIVERSEORDER>
1
26
25
4
2
21
9
24
15
27
16
22
28
11
10
5
13
17
3
20
7
12
8
23
19
18
14
6

>  <PUBCHEM_MMFF94_PARTIAL_CHARGES>
10
1 -0.43
16 0.15
17 0.15
18 0.15
2 -0.57
3 0.06
5 0.66
6 0.42
7 -0.29
8 -0.3

>  <PUBCHEM_EFFECTIVE_ROTOR_COUNT>
4

>  <PUBCHEM_PHARMACOPHORE_FEATURES>
3
1 2 acceptor
1 4 hydrophobe
1 8 hydrophobe

>  <PUBCHEM_HEAVY_ATOM_COUNT>
8

>  <PUBCHEM_ATOM_DEF_STEREO_COUNT>
0

>  <PUBCHEM_ATOM_UDEF_STEREO_COUNT>
0

>  <PUBCHEM_BOND_DEF_STEREO_COUNT>
0

>  <PUBCHEM_BOND_UDEF_STEREO_COUNT>
0

>  <PUBCHEM_ISOTOPIC_ATOM_COUNT>
0

>  <PUBCHEM_COMPONENT_COUNT>
1

>  <PUBCHEM_CACTVS_TAUTO_COUNT>
1

>  <PUBCHEM_CONFORMER_ID>
0000EF8700000019

>  <PUBCHEM_MMFF94_ENERGY>
22.5405

>  <PUBCHEM_FEATURE_SELFOVERLAP>
15.223

>  <PUBCHEM_SHAPE_FINGERPRINT>
18185500 45 17096088137567746082
21040471 1 18263372382137425941
21922407 69 17604429729425547776
23552333 60 16589720186272480835
23552449 11 17254281640172256563
24536 1 18336543910456173830
5084963 1 18269845207079691133
54338 74 18189599708932103005
5943 1 14660242773247576911

>  <PUBCHEM_SHAPE_MULTIPOLES>
152.9
2.35
1.52
1.13
0.44
0.13
0.03
0.64
0.38
-0.6
0.1
0.38
-0.14
0.37

>  <PUBCHEM_SHAPE_SELFOVERLAP>
283.147

>  <PUBCHEM_SHAPE_VOLUME>
96.3

>  <PUBCHEM_COORDINATE_TYPE>
2
5
10

$$$$
