5754
 OpenBabel05082101303D

 56 59  0  0  1  0  0  0  0  0999 V2000
    3.1497   -0.5477   -2.0415 O   0  0  0  0  0  0  0  0  0  0  0  0
   -0.0091    2.0515    1.1944 O   0  0  0  0  0  0  0  0  0  0  0  0
    5.4669   -0.3867    0.2592 O   0  0  0  0  0  0  0  0  0  0  0  0
    4.7401    2.4450    0.4016 O   0  0  0  0  0  0  0  0  0  0  0  0
   -6.3507    0.1487   -1.2452 O   0  0  0  0  0  0  0  0  0  0  0  0
    1.9939   -0.0318    0.0664 C   0  0  1  0  0  0  0  0  0  0  0  0
    1.0389   -1.2300   -0.1248 C   0  0  2  0  0  0  0  0  0  0  0  0
   -0.3422   -1.0239    0.5152 C   0  0  1  0  0  0  0  0  0  0  0  0
   -1.0139    0.2321   -0.1292 C   0  0  1  0  0  0  0  0  0  0  0  0
    3.2635   -0.6039   -0.6227 C   0  0  1  0  0  0  0  0  0  0  0  0
    1.3458    1.1896   -0.6172 C   0  0  0  0  0  0  0  0  0  0  0  0
   -2.4924    0.4723    0.3845 C   0  0  2  0  0  0  0  0  0  0  0  0
   -0.0820    1.4838   -0.1057 C   0  0  2  0  0  0  0  0  0  0  0  0
    1.8813   -2.4268    0.3088 C   0  0  0  0  0  0  0  0  0  0  0  0
    3.3063   -2.0822   -0.1726 C   0  0  0  0  0  0  0  0  0  0  0  0
   -1.2202   -2.2671    0.3026 C   0  0  0  0  0  0  0  0  0  0  0  0
    2.3047    0.2729    1.5580 C   0  0  0  0  0  0  0  0  0  0  0  0
   -3.2836   -0.8382    0.2735 C   0  0  0  0  0  0  0  0  0  0  0  0
   -2.6255   -2.0678    0.8498 C   0  0  0  0  0  0  0  0  0  0  0  0
   -3.1432    1.5642   -0.5140 C   0  0  0  0  0  0  0  0  0  0  0  0
   -2.5685    0.9262    1.8599 C   0  0  0  0  0  0  0  0  0  0  0  0
    4.5182    0.1549   -0.3063 C   0  0  0  0  0  0  0  0  0  0  0  0
   -4.6585    1.6193   -0.4033 C   0  0  0  0  0  0  0  0  0  0  0  0
   -4.5119   -0.9339   -0.2623 C   0  0  0  0  0  0  0  0  0  0  0  0
   -5.2513    0.2690   -0.7087 C   0  0  0  0  0  0  0  0  0  0  0  0
    4.5437    1.6107   -0.7204 C   0  0  0  0  0  0  0  0  0  0  0  0
    0.8596   -1.3627   -1.2047 H   0  0  0  0  0  0  0  0  0  0  0  0
   -0.2343   -0.8745    1.5942 H   0  0  0  0  0  0  0  0  0  0  0  0
   -1.1103   -0.0176   -1.1996 H   0  0  0  0  0  0  0  0  0  0  0  0
    1.2915    1.0412   -1.7020 H   0  0  0  0  0  0  0  0  0  0  0  0
    1.9330    2.0917   -0.4306 H   0  0  0  0  0  0  0  0  0  0  0  0
   -0.5095    2.2548   -0.7567 H   0  0  0  0  0  0  0  0  0  0  0  0
    1.5296   -3.3615   -0.1397 H   0  0  0  0  0  0  0  0  0  0  0  0
    1.8647   -2.5544    1.3971 H   0  0  0  0  0  0  0  0  0  0  0  0
    4.0043   -2.2693    0.6505 H   0  0  0  0  0  0  0  0  0  0  0  0
    3.5882   -2.7455   -0.9985 H   0  0  0  0  0  0  0  0  0  0  0  0
   -0.7708   -3.1342    0.8007 H   0  0  0  0  0  0  0  0  0  0  0  0
   -1.2757   -2.5102   -0.7666 H   0  0  0  0  0  0  0  0  0  0  0  0
    2.8283    1.2273    1.6669 H   0  0  0  0  0  0  0  0  0  0  0  0
    1.4074    0.3370    2.1768 H   0  0  0  0  0  0  0  0  0  0  0  0
    2.9364   -0.4930    2.0202 H   0  0  0  0  0  0  0  0  0  0  0  0
   -2.5849   -1.9735    1.9420 H   0  0  0  0  0  0  0  0  0  0  0  0
   -3.2147   -2.9696    0.6424 H   0  0  0  0  0  0  0  0  0  0  0  0
   -2.8886    1.3725   -1.5660 H   0  0  0  0  0  0  0  0  0  0  0  0
   -2.7383    2.5546   -0.2736 H   0  0  0  0  0  0  0  0  0  0  0  0
   -1.9195    0.3318    2.5105 H   0  0  0  0  0  0  0  0  0  0  0  0
   -2.2897    1.9777    1.9795 H   0  0  0  0  0  0  0  0  0  0  0  0
   -3.5869    0.8338    2.2572 H   0  0  0  0  0  0  0  0  0  0  0  0
    3.8918   -1.0448   -2.4265 H   0  0  0  0  0  0  0  0  0  0  0  0
   -5.0462    2.3421   -1.1297 H   0  0  0  0  0  0  0  0  0  0  0  0
   -4.9837    1.9303    0.5945 H   0  0  0  0  0  0  0  0  0  0  0  0
    0.5238    2.8626    1.1362 H   0  0  0  0  0  0  0  0  0  0  0  0
   -5.0352   -1.8816   -0.3321 H   0  0  0  0  0  0  0  0  0  0  0  0
    3.6859    1.9299   -1.3036 H   0  0  0  0  0  0  0  0  0  0  0  0
    5.4036    1.7353   -1.3898 H   0  0  0  0  0  0  0  0  0  0  0  0
    5.6091    2.2288    0.7809 H   0  0  0  0  0  0  0  0  0  0  0  0
  1 49  1  0  0  0  0
  2 13  1  0  0  0  0
  2 52  1  0  0  0  0
  3 22  2  0  0  0  0
  4 26  1  0  0  0  0
  4 56  1  0  0  0  0
  5 25  2  0  0  0  0
  6  7  1  0  0  0  0
  6 10  1  0  0  0  0
  6 11  1  0  0  0  0
  6 17  1  1  0  0  0
  7  8  1  0  0  0  0
  7 14  1  0  0  0  0
  7 27  1  6  0  0  0
  8  9  1  0  0  0  0
  8 16  1  0  0  0  0
  8 28  1  1  0  0  0
  9 12  1  0  0  0  0
  9 13  1  0  0  0  0
  9 29  1  6  0  0  0
 10  1  1  6  0  0  0
 10 15  1  0  0  0  0
 10 22  1  0  0  0  0
 11 13  1  0  0  0  0
 11 30  1  0  0  0  0
 11 31  1  0  0  0  0
 12 18  1  0  0  0  0
 12 20  1  0  0  0  0
 12 21  1  1  0  0  0
 13 32  1  6  0  0  0
 14 15  1  0  0  0  0
 14 33  1  0  0  0  0
 14 34  1  0  0  0  0
 15 35  1  0  0  0  0
 15 36  1  0  0  0  0
 16 19  1  0  0  0  0
 16 37  1  0  0  0  0
 16 38  1  0  0  0  0
 17 39  1  0  0  0  0
 17 40  1  0  0  0  0
 17 41  1  0  0  0  0
 18 19  1  0  0  0  0
 18 24  2  0  0  0  0
 19 42  1  0  0  0  0
 19 43  1  0  0  0  0
 20 23  1  0  0  0  0
 20 44  1  0  0  0  0
 20 45  1  0  0  0  0
 21 46  1  0  0  0  0
 21 47  1  0  0  0  0
 21 48  1  0  0  0  0
 22 26  1  0  0  0  0
 23 25  1  0  0  0  0
 23 50  1  0  0  0  0
 23 51  1  0  0  0  0
 24 25  1  0  0  0  0
 24 53  1  0  0  0  0
 26 54  1  0  0  0  0
 26 55  1  0  0  0  0
M  END
>  <PUBCHEM_COMPOUND_CID>
5754

>  <PUBCHEM_CONFORMER_RMSD>
0.8

>  <PUBCHEM_CONFORMER_DIVERSEORDER>
1
2

>  <PUBCHEM_MMFF94_PARTIAL_CHARGES>
19
1 -0.68
10 0.34
12 0.14
13 0.28
18 -0.28
19 0.14
2 -0.68
22 0.45
23 0.06
24 -0.14
25 0.49
26 0.34
3 -0.57
4 -0.68
49 0.4
5 -0.57
52 0.4
53 0.15
56 0.4

>  <PUBCHEM_EFFECTIVE_ROTOR_COUNT>
3.8

>  <PUBCHEM_PHARMACOPHORE_FEATURES>
12
1 1 acceptor
1 1 donor
1 2 acceptor
1 2 donor
1 3 acceptor
1 4 acceptor
1 4 donor
1 5 acceptor
5 6 7 10 14 15 rings
6 12 18 20 23 24 25 rings
6 6 7 8 9 11 13 rings
6 8 9 12 16 18 19 rings

>  <PUBCHEM_HEAVY_ATOM_COUNT>
26

>  <PUBCHEM_ATOM_DEF_STEREO_COUNT>
7

>  <PUBCHEM_ATOM_UDEF_STEREO_COUNT>
0

>  <PUBCHEM_BOND_DEF_STEREO_COUNT>
0

>  <PUBCHEM_BOND_UDEF_STEREO_COUNT>
0

>  <PUBCHEM_ISOTOPIC_ATOM_COUNT>
0

>  <PUBCHEM_COMPONENT_COUNT>
1

>  <PUBCHEM_CACTVS_TAUTO_COUNT>
15

>  <PUBCHEM_CONFORMER_ID>
0000167A00000002

>  <PUBCHEM_MMFF94_ENERGY>
88.3216

>  <PUBCHEM_FEATURE_SELFOVERLAP>
60.992

>  <PUBCHEM_SHAPE_FINGERPRINT>
10366900 7 17703792534839517315
10498660 4 18409173211780415808
10906281 52 18200893811253386769
11112241 14 16842743118077353304
11370993 70 18334577953416582678
11578080 2 16914518125026916155
11961588 58 18040989670446283401
12011746 2 18413387635512606991
12236239 1 18059856130554105429
12403814 3 17312821567685416175
12553582 1 18265355956885205168
12788726 201 17845656924198645161
13140716 1 18337966691524730520
13224815 77 18342182145901216810
14528608 73 18411982468310724884
14787075 74 18200594812419906736
14790565 3 17979361854984968833
15196674 1 18408605833826709495
15238133 3 14490471941848261711
15375358 24 18409169917561670266
15788980 27 17022625281859799680
1601671 61 18261110763938746940
16945 1 18261688011838283482
17349148 13 18410286999731706235
1813 80 14045738223028325819
18608769 82 18262240036408189155
19862831 5 18410295787683401107
200 152 17917707990228758031
20511986 3 18114728417367708294
20645477 70 18130227060400846062
20715895 44 18114739313815841645
21029758 11 18343301470440047689
21267235 1 18409741650765812706
21285901 2 17968652705981542343
21857420 4 12414244021702423077
221357 26 18341323419452747317
22393880 68 18410295778734692863
23227448 37 18263084460388339631
23402539 116 18411414008046358894
23559900 14 18340206281052659754
3004659 81 18187927214534428362
3298306 158 17768248269156846712
335352 9 18407760322929280518
34797466 226 17917719019066711501
34934 24 18335699468246341922
350125 39 18337118972739576891
465052 167 10735874001799472909
474 4 17168437033778872358
5104073 3 18261397727931271739
5283173 99 18335697204888585717
59755656 215 18335143034454894598
9709674 26 18340216184867546774

>  <PUBCHEM_SHAPE_MULTIPOLES>
505.72
11.35
2.4
1.21
3.1
0.38
0.15
-2.71
-3.13
-0.79
0.26
0.09
-0.21
0.38

>  <PUBCHEM_SHAPE_SELFOVERLAP>
1088.864

>  <PUBCHEM_SHAPE_VOLUME>
274.7

>  <PUBCHEM_COORDINATE_TYPE>
2
5
10

$$$$
