5281517
 OpenBabel05082101313D

 39 38  0  0  0  0  0  0  0  0999 V2000
    1.6108   -1.9451   -0.4050 C   0  0  0  0  0  0  0  0  0  0  0  0
    0.1550   -1.9315    0.0245 C   0  0  0  0  0  0  0  0  0  0  0  0
    1.9834   -0.8001   -1.3571 C   0  0  0  0  0  0  0  0  0  0  0  0
   -1.6012   -1.0506    1.6699 C   0  0  0  0  0  0  0  0  0  0  0  0
   -0.2227   -1.2004    1.0914 C   0  0  0  0  0  0  0  0  0  0  0  0
   -2.5874   -0.5603    0.6024 C   0  0  0  0  0  0  0  0  0  0  0  0
    1.6656    0.5526   -0.7798 C   0  0  0  0  0  0  0  0  0  0  0  0
   -0.7708   -2.7634   -0.8196 C   0  0  0  0  0  0  0  0  0  0  0  0
    2.2169    1.1483    0.2948 C   0  0  0  0  0  0  0  0  0  0  0  0
   -2.2454    0.8226    0.0899 C   0  0  0  0  0  0  0  0  0  0  0  0
    1.8511    2.5074    0.8198 C   0  0  0  0  0  0  0  0  0  0  0  0
    3.3067    0.4579    1.0711 C   0  0  0  0  0  0  0  0  0  0  0  0
   -2.0700    1.0599   -1.3372 C   0  0  0  0  0  0  0  0  0  0  0  0
   -2.1285    1.8469    0.9528 C   0  0  0  0  0  0  0  0  0  0  0  0
   -1.1636    1.8558   -1.9179 C   0  0  0  0  0  0  0  0  0  0  0  0
    1.8404   -2.8982   -0.8984 H   0  0  0  0  0  0  0  0  0  0  0  0
    2.2490   -1.9424    0.4857 H   0  0  0  0  0  0  0  0  0  0  0  0
    3.0444   -0.8570   -1.6259 H   0  0  0  0  0  0  0  0  0  0  0  0
    1.4263   -0.9159   -2.2957 H   0  0  0  0  0  0  0  0  0  0  0  0
   -1.5661   -0.3745    2.5312 H   0  0  0  0  0  0  0  0  0  0  0  0
   -1.9330   -2.0195    2.0621 H   0  0  0  0  0  0  0  0  0  0  0  0
    0.5429   -0.6748    1.6567 H   0  0  0  0  0  0  0  0  0  0  0  0
   -2.7119   -1.2567   -0.2283 H   0  0  0  0  0  0  0  0  0  0  0  0
   -3.5839   -0.5087    1.0636 H   0  0  0  0  0  0  0  0  0  0  0  0
    0.9894    1.1308   -1.3778 H   0  0  0  0  0  0  0  0  0  0  0  0
   -1.6624   -3.0838   -0.2743 H   0  0  0  0  0  0  0  0  0  0  0  0
   -1.0633   -2.2183   -1.7219 H   0  0  0  0  0  0  0  0  0  0  0  0
   -0.2746   -3.6893   -1.1316 H   0  0  0  0  0  0  0  0  0  0  0  0
    1.0744    2.9839    0.2164 H   0  0  0  0  0  0  0  0  0  0  0  0
    1.4772    2.4291    1.8457 H   0  0  0  0  0  0  0  0  0  0  0  0
    2.7243    3.1678    0.8144 H   0  0  0  0  0  0  0  0  0  0  0  0
    3.7979   -0.3508    0.5249 H   0  0  0  0  0  0  0  0  0  0  0  0
    2.9127    0.0622    2.0124 H   0  0  0  0  0  0  0  0  0  0  0  0
    4.1002    1.1739    1.3151 H   0  0  0  0  0  0  0  0  0  0  0  0
   -2.6901    0.4437   -1.9853 H   0  0  0  0  0  0  0  0  0  0  0  0
   -2.2810    1.7139    2.0188 H   0  0  0  0  0  0  0  0  0  0  0  0
   -1.9043    2.8588    0.6298 H   0  0  0  0  0  0  0  0  0  0  0  0
   -1.0980    1.9042   -3.0000 H   0  0  0  0  0  0  0  0  0  0  0  0
   -0.5331    2.5281   -1.3505 H   0  0  0  0  0  0  0  0  0  0  0  0
  1  2  1  0  0  0  0
  1  3  1  0  0  0  0
  1 16  1  0  0  0  0
  1 17  1  0  0  0  0
  2  5  2  0  0  0  0
  2  8  1  0  0  0  0
  3  7  1  0  0  0  0
  3 18  1  0  0  0  0
  3 19  1  0  0  0  0
  4  5  1  0  0  0  0
  4  6  1  0  0  0  0
  4 20  1  0  0  0  0
  4 21  1  0  0  0  0
  5 22  1  0  0  0  0
  6 10  1  0  0  0  0
  6 23  1  0  0  0  0
  6 24  1  0  0  0  0
  7  9  2  0  0  0  0
  7 25  1  0  0  0  0
  8 26  1  0  0  0  0
  8 27  1  0  0  0  0
  8 28  1  0  0  0  0
  9 11  1  0  0  0  0
  9 12  1  0  0  0  0
 10 13  1  0  0  0  0
 10 14  2  0  0  0  0
 11 29  1  0  0  0  0
 11 30  1  0  0  0  0
 11 31  1  0  0  0  0
 12 32  1  0  0  0  0
 12 33  1  0  0  0  0
 12 34  1  0  0  0  0
 13 15  2  0  0  0  0
 13 35  1  0  0  0  0
 14 36  1  0  0  0  0
 14 37  1  0  0  0  0
 15 38  1  0  0  0  0
 15 39  1  0  0  0  0
M  END
>  <PUBCHEM_COMPOUND_CID>
5281517

>  <PUBCHEM_CONFORMER_RMSD>
0.8

>  <PUBCHEM_CONFORMER_DIVERSEORDER>
3
107
488
219
152
422
379
54
221
197
352
283
176
294
248
445
143
56
271
489
321
135
252
366
46
428
484
80
329
311
349
156
270
278
282
163
162
293
444
240
177
279
267
68
138
416
436
128
468
376
383
263
385
287
344
464
69
475
238
424
200
433
487
218
420
43
192
324
179
73
153
62
317
365
144
164
377
288
235
83
250
470
476
315
186
261
98
175
137
142
426
307
9
312
140
473
417
388
118
378
148
327
402
398
309
25
391
290
23
78
491
466
357
458
90
320
114
34
392
333
298
384
19
189
129
122
166
58
74
435
386
406
275
430
117
115
323
350
482
268
139
93
85
371
112
168
269
256
214
57
15
368
132
249
181
255
160
170
183
16
418
84
341
313
216
396
154
165
434
45
102
304
319
79
220
242
291
421
479
66
485
134
94
409
119
180
198
302
190
31
460
490
91
194
13
370
207
87
241
456
390
382
347
167
178
169
401
246
110
133
343
486
109
75
305
227
399
224
454
359
262
318
1
97
64
127
299
389
225
400
471
457
111
411
446
100
310
314
130
419
301
228
226
182
266
185
120
439
32
172
211
296
116
257
231
26
29
51
239
60
286
450
363
455
123
208
222
146
481
372
136
474
76
173
483
316
95
337
14
99
405
429
369
328
427
404
353
364
171
30
203
331
149
213
204
55
161
280
297
274
232
472
151
303
414
108
332
229
340
126
375
145
387
463
407
236
243
6
12
103
33
101
81
374
48
355
7
92
308
367
155
338
285
191
193
210
61
467
408
440
345
300
188
264
230
196
465
49
339
88
39
295
394
443
63
351
233
70
44
104
336
441
342
205
89
273
5
121
330
105
326
292
335
212
141
442
202
50
284
36
27
20
477
223
449
362
258
217
209
356
65
174
10
195
410
462
67
413
381
432
373
2
82
244
438
40
72
451
361
21
53
259
452
265
11
480
325
395
24
358
96
431
59
334
28
469
478
306
8
131
393
215
71
254
42
437
159
41
247
125
272
461
459
322
281
37
113
38
245
22
47
86
158
346
276
397
201
348
453
77
234
52
124
492
253
380
237
360
199
251
206
4
423
260
425
157
448
289
354
415
447
187
412
403
18
150
35
147
184
277
17
106

>  <PUBCHEM_MMFF94_PARTIAL_CHARGES>
22
1 0.14
10 -0.14
11 0.14
12 0.14
13 -0.15
14 -0.3
15 -0.3
2 -0.28
22 0.15
25 0.15
3 0.14
35 0.15
36 0.15
37 0.15
38 0.15
39 0.15
4 0.14
5 -0.29
6 0.14
7 -0.29
8 0.14
9 -0.28

>  <PUBCHEM_EFFECTIVE_ROTOR_COUNT>
7

>  <PUBCHEM_PHARMACOPHORE_FEATURES>
6
1 14 hydrophobe
1 15 hydrophobe
1 8 hydrophobe
3 9 11 12 hydrophobe
4 1 2 3 7 hydrophobe
5 4 5 6 10 13 hydrophobe

>  <PUBCHEM_HEAVY_ATOM_COUNT>
15

>  <PUBCHEM_ATOM_DEF_STEREO_COUNT>
0

>  <PUBCHEM_ATOM_UDEF_STEREO_COUNT>
0

>  <PUBCHEM_BOND_DEF_STEREO_COUNT>
1

>  <PUBCHEM_BOND_UDEF_STEREO_COUNT>
0

>  <PUBCHEM_ISOTOPIC_ATOM_COUNT>
0

>  <PUBCHEM_COMPONENT_COUNT>
1

>  <PUBCHEM_CACTVS_TAUTO_COUNT>
1

>  <PUBCHEM_CONFORMER_ID>
005096ED000001E8

>  <PUBCHEM_MMFF94_ENERGY>
33.0551

>  <PUBCHEM_FEATURE_SELFOVERLAP>
30.565

>  <PUBCHEM_SHAPE_FINGERPRINT>
12077114 3 18261096496447701728
14251711 518 17106803032972943620
14251745 187 18116175293075915750
14386348 128 18118423768537525485
14614273 12 18055913435816795022
14817 1 12213062865826762647
15775835 57 18186515488463694209
15852999 172 17896581926109198045
15881359 60 17971751322895548831
16945 1 18198639889114155011
21041028 32 16826442407202427387
21296965 12 18261661632370730019
21524375 3 18334570222543976299
21947302 44 18342179929687523114
23419403 2 16527182898838134806
238 59 18045760318076253293
25610 171 17459210593046930227
2748010 2 18337967696162020535
2803657 2 15523188993855564741
3286 77 18269005210398024071
3524813 1 18338534013538509488
59345606 92 16395216789803971868
7832392 63 17624700050959640713
81228 2 18047477999719775531

>  <PUBCHEM_SHAPE_MULTIPOLES>
308.69
4.2
2.98
1.68
1.11
0.48
0.28
-1.6
-0.78
-0.01
0.28
-0.4
-0.32
0.95

>  <PUBCHEM_SHAPE_SELFOVERLAP>
586.395

>  <PUBCHEM_SHAPE_VOLUME>
189.9

>  <PUBCHEM_COORDINATE_TYPE>
2
5
10

$$$$
