1752
 OpenBabel05082101303D

 40 40  0  0  0  0  0  0  0  0999 V2000
    5.3856   -0.2086    1.1884 O   0  0  0  0  0  0  0  0  0  0  0  0
   -1.3772   -1.4879    0.1052 C   0  0  0  0  0  0  0  0  0  0  0  0
   -2.7732   -0.9979   -0.2864 C   0  0  0  0  0  0  0  0  0  0  0  0
   -0.4222   -1.6155   -1.0858 C   0  0  0  0  0  0  0  0  0  0  0  0
   -3.6789   -0.8658    0.9412 C   0  0  0  0  0  0  0  0  0  0  0  0
   -0.2535   -0.3096   -1.8699 C   0  0  0  0  0  0  0  0  0  0  0  0
   -5.0627   -0.3392    0.5539 C   0  0  0  0  0  0  0  0  0  0  0  0
    0.2955    0.8357   -1.0103 C   0  0  0  0  0  0  0  0  0  0  0  0
   -5.0257    1.0526   -0.0810 C   0  0  0  0  0  0  0  0  0  0  0  0
    1.6558    0.5565   -0.4222 C   0  0  0  0  0  0  0  0  0  0  0  0
   -4.4983    2.1318    0.8521 C   0  0  0  0  0  0  0  0  0  0  0  0
    1.7492   -0.0532    0.8196 C   0  0  0  0  0  0  0  0  0  0  0  0
    2.7908    0.9140   -1.1340 C   0  0  0  0  0  0  0  0  0  0  0  0
    3.0078   -0.3115    1.3628 C   0  0  0  0  0  0  0  0  0  0  0  0
    4.0492    0.6556   -0.5910 C   0  0  0  0  0  0  0  0  0  0  0  0
    4.1578    0.0430    0.6575 C   0  0  0  0  0  0  0  0  0  0  0  0
   -0.9844   -0.8246    0.8748 H   0  0  0  0  0  0  0  0  0  0  0  0
   -1.4667   -2.4754    0.5753 H   0  0  0  0  0  0  0  0  0  0  0  0
   -3.2209   -1.6867   -1.0123 H   0  0  0  0  0  0  0  0  0  0  0  0
   -2.6792   -0.0231   -0.7682 H   0  0  0  0  0  0  0  0  0  0  0  0
   -0.8194   -2.3739   -1.7727 H   0  0  0  0  0  0  0  0  0  0  0  0
    0.5451   -2.0015   -0.7477 H   0  0  0  0  0  0  0  0  0  0  0  0
   -3.7969   -1.8499    1.4111 H   0  0  0  0  0  0  0  0  0  0  0  0
   -3.2162   -0.2151    1.6913 H   0  0  0  0  0  0  0  0  0  0  0  0
    0.4390   -0.5001   -2.7003 H   0  0  0  0  0  0  0  0  0  0  0  0
   -1.1974   -0.0052   -2.3341 H   0  0  0  0  0  0  0  0  0  0  0  0
   -5.6966   -0.3152    1.4485 H   0  0  0  0  0  0  0  0  0  0  0  0
   -5.5357   -1.0375   -0.1473 H   0  0  0  0  0  0  0  0  0  0  0  0
   -0.4080    1.1019   -0.2122 H   0  0  0  0  0  0  0  0  0  0  0  0
    0.3582    1.7373   -1.6346 H   0  0  0  0  0  0  0  0  0  0  0  0
   -6.0556    1.3189   -0.3516 H   0  0  0  0  0  0  0  0  0  0  0  0
   -4.4661    1.0587   -1.0210 H   0  0  0  0  0  0  0  0  0  0  0  0
   -4.6237    3.1179    0.3932 H   0  0  0  0  0  0  0  0  0  0  0  0
   -3.4323    1.9978    1.0579 H   0  0  0  0  0  0  0  0  0  0  0  0
   -5.0397    2.1307    1.8034 H   0  0  0  0  0  0  0  0  0  0  0  0
    0.8807   -0.3036    1.4126 H   0  0  0  0  0  0  0  0  0  0  0  0
    2.7170    1.3894   -2.1079 H   0  0  0  0  0  0  0  0  0  0  0  0
    3.0791   -0.7810    2.3404 H   0  0  0  0  0  0  0  0  0  0  0  0
    4.9416    0.9336   -1.1453 H   0  0  0  0  0  0  0  0  0  0  0  0
    5.2728   -0.6356    2.0549 H   0  0  0  0  0  0  0  0  0  0  0  0
  1 16  1  0  0  0  0
  1 40  1  0  0  0  0
  2  3  1  0  0  0  0
  2  4  1  0  0  0  0
  2 17  1  0  0  0  0
  2 18  1  0  0  0  0
  3  5  1  0  0  0  0
  3 19  1  0  0  0  0
  3 20  1  0  0  0  0
  4  6  1  0  0  0  0
  4 21  1  0  0  0  0
  4 22  1  0  0  0  0
  5  7  1  0  0  0  0
  5 23  1  0  0  0  0
  5 24  1  0  0  0  0
  6  8  1  0  0  0  0
  6 25  1  0  0  0  0
  6 26  1  0  0  0  0
  7  9  1  0  0  0  0
  7 27  1  0  0  0  0
  7 28  1  0  0  0  0
  8 10  1  0  0  0  0
  8 29  1  0  0  0  0
  8 30  1  0  0  0  0
  9 11  1  0  0  0  0
  9 31  1  0  0  0  0
  9 32  1  0  0  0  0
 10 12  2  0  0  0  0
 10 13  1  0  0  0  0
 11 33  1  0  0  0  0
 11 34  1  0  0  0  0
 11 35  1  0  0  0  0
 12 14  1  0  0  0  0
 12 36  1  0  0  0  0
 13 15  2  0  0  0  0
 13 37  1  0  0  0  0
 14 16  2  0  0  0  0
 14 38  1  0  0  0  0
 15 16  1  0  0  0  0
 15 39  1  0  0  0  0
M  END
>  <PUBCHEM_COMPOUND_CID>
1752

>  <PUBCHEM_CONFORMER_RMSD>
0.8

>  <PUBCHEM_CONFORMER_DIVERSEORDER>
1
47
55
70
29
7
60
75
94
16
91
106
92
44
28
100
63
61
59
45
99
110
65
64
90
83
76
8
113
15
98
36
68
112
9
78
82
97
102
27
18
5
103
62
49
41
56
74
71
21
57
67
96
117
51
2
37
48
79
31
24
13
30
14
20
3
12
101
26
72
86
118
4
38
107
53
10
43
108
39
42
46
81
84
52
58
85
6
19
95
121
11
80
25
22
50
88
34
23
54
73
32
33
115
66
114
35
87
116
40
119
109
77
89
105
104
17
69
93
111
120

>  <PUBCHEM_MMFF94_PARTIAL_CHARGES>
13
1 -0.53
10 -0.14
12 -0.15
13 -0.15
14 -0.15
15 -0.15
16 0.08
36 0.15
37 0.15
38 0.15
39 0.15
40 0.45
8 0.14

>  <PUBCHEM_EFFECTIVE_ROTOR_COUNT>
8

>  <PUBCHEM_PHARMACOPHORE_FEATURES>
3
1 1 donor
1 11 hydrophobe
6 10 12 13 14 15 16 rings

>  <PUBCHEM_HEAVY_ATOM_COUNT>
16

>  <PUBCHEM_ATOM_DEF_STEREO_COUNT>
0

>  <PUBCHEM_ATOM_UDEF_STEREO_COUNT>
0

>  <PUBCHEM_BOND_DEF_STEREO_COUNT>
0

>  <PUBCHEM_BOND_UDEF_STEREO_COUNT>
0

>  <PUBCHEM_ISOTOPIC_ATOM_COUNT>
0

>  <PUBCHEM_COMPONENT_COUNT>
1

>  <PUBCHEM_CACTVS_TAUTO_COUNT>
2

>  <PUBCHEM_CONFORMER_ID>
000006D800000037

>  <PUBCHEM_MMFF94_ENERGY>
22.8087

>  <PUBCHEM_FEATURE_SELFOVERLAP>
15.223

>  <PUBCHEM_SHAPE_FINGERPRINT>
11552529 35 17606127422739980683
12119455 92 16559031588406791567
12236239 1 18186522124187984609
12500047 106 17560799986948958798
12596602 18 17894634798649195081
12633257 1 17458339749593775059
12670546 177 11815897851409797705
12670546 56 18114460158274295469
12892183 10 17896328093673756067
13103583 49 17385448704683725289
13464513 79 12829494778678612809
13583140 156 17560796684193136119
14123255 352 18131350800165920273
14178000 22 17703787037745953095
14251732 17 18130787811336013257
14251758 9 18341334396729902934
14251764 3 17346876732848303353
14251764 30 13406798822104450369
14252887 29 14996281452525697935
14350574 20 16008741404127187610
14466204 15 18341892961469129897
14957384 54 18059844095428027449
15527383 91 16805041822043181173
1813 80 15791736269361109191
18186145 218 16487264278698168031
18915474 69 10735877249158842749
20432913 95 15791733027145512377
21150785 3 8718548359496656264
212916 134 18131344219938659347
231179 274 17418377982365599239
23382010 3 13326850033177167031
23402539 116 13398637147038079195
23557571 272 17845951705590433391
23559900 14 16630256887188059726
238078 22 8574710200610577975
2838139 119 14836402540762933538
328317 168 14549019900713172915
351380 180 16128378181196103779
4028521 119 16917352519942220369
5352402 22 15791452621441669699
548570 60 16558753433650855739
83771 10 16370718253371528310

>  <PUBCHEM_SHAPE_MULTIPOLES>
323.4
11.52
1.56
1.47
4.21
0.21
0.21
3.51
-4.46
2
0.05
-0.86
-0.08
-0.61

>  <PUBCHEM_SHAPE_SELFOVERLAP>
635.83

>  <PUBCHEM_SHAPE_VOLUME>
193.8

>  <PUBCHEM_COORDINATE_TYPE>
2
5
10

$$$$
