1711945
 OpenBabel05082101313D

 49 48  0  0  0  0  0  0  0  0999 V2000
    5.0577    2.4979    0.0642 O   0  0  0  0  0  0  0  0  0  0  0  0
    0.0520   -2.1722   -1.5194 C   0  0  0  0  0  0  0  0  0  0  0  0
   -1.0250   -2.3379   -0.4372 C   0  0  0  0  0  0  0  0  0  0  0  0
   -2.2466    0.3932    2.1664 C   0  0  0  0  0  0  0  0  0  0  0  0
   -2.1213   -0.8856    1.3676 C   0  0  0  0  0  0  0  0  0  0  0  0
    1.4210   -1.7774   -0.9937 C   0  0  0  0  0  0  0  0  0  0  0  0
   -1.2420   -1.0845    0.3662 C   0  0  0  0  0  0  0  0  0  0  0  0
   -3.3052    1.3408    1.5891 C   0  0  0  0  0  0  0  0  0  0  0  0
    1.9779   -0.6128   -1.3807 C   0  0  0  0  0  0  0  0  0  0  0  0
    3.3348   -0.0626   -1.0346 C   0  0  0  0  0  0  0  0  0  0  0  0
   -3.0372   -2.0024    1.7996 C   0  0  0  0  0  0  0  0  0  0  0  0
    2.0751   -2.7928   -0.0977 C   0  0  0  0  0  0  0  0  0  0  0  0
    3.2902    0.8829    0.1625 C   0  0  0  0  0  0  0  0  0  0  0  0
   -2.9143    1.8102    0.2147 C   0  0  0  0  0  0  0  0  0  0  0  0
   -3.5733    1.6362   -0.9466 C   0  0  0  0  0  0  0  0  0  0  0  0
    4.6537    1.4325    0.5299 C   0  0  0  0  0  0  0  0  0  0  0  0
   -3.0013    2.1747   -2.2319 C   0  0  0  0  0  0  0  0  0  0  0  0
   -4.8890    0.9301   -1.1069 C   0  0  0  0  0  0  0  0  0  0  0  0
    5.4928    0.6295    1.4884 C   0  0  0  0  0  0  0  0  0  0  0  0
    0.1504   -3.1192   -2.0658 H   0  0  0  0  0  0  0  0  0  0  0  0
   -0.3033   -1.4408   -2.2579 H   0  0  0  0  0  0  0  0  0  0  0  0
   -1.9622   -2.6114   -0.9370 H   0  0  0  0  0  0  0  0  0  0  0  0
   -0.7527   -3.1630    0.2308 H   0  0  0  0  0  0  0  0  0  0  0  0
   -1.2739    0.9024    2.1997 H   0  0  0  0  0  0  0  0  0  0  0  0
   -2.4925    0.1574    3.2091 H   0  0  0  0  0  0  0  0  0  0  0  0
   -0.6096   -0.2354    0.1126 H   0  0  0  0  0  0  0  0  0  0  0  0
   -3.3801    2.2217    2.2384 H   0  0  0  0  0  0  0  0  0  0  0  0
   -4.2870    0.8613    1.6112 H   0  0  0  0  0  0  0  0  0  0  0  0
    1.3977    0.0373   -2.0349 H   0  0  0  0  0  0  0  0  0  0  0  0
    4.0510   -0.8707   -0.8508 H   0  0  0  0  0  0  0  0  0  0  0  0
    3.7270    0.4702   -1.9102 H   0  0  0  0  0  0  0  0  0  0  0  0
   -2.9346   -2.9168    1.2098 H   0  0  0  0  0  0  0  0  0  0  0  0
   -2.8396   -2.2654    2.8443 H   0  0  0  0  0  0  0  0  0  0  0  0
   -4.0814   -1.6824    1.7182 H   0  0  0  0  0  0  0  0  0  0  0  0
    2.1296   -3.7635   -0.6012 H   0  0  0  0  0  0  0  0  0  0  0  0
    3.0931   -2.5165    0.1881 H   0  0  0  0  0  0  0  0  0  0  0  0
    1.5064   -2.9128    0.8294 H   0  0  0  0  0  0  0  0  0  0  0  0
    2.8736    0.3809    1.0441 H   0  0  0  0  0  0  0  0  0  0  0  0
    2.6312    1.7351   -0.0456 H   0  0  0  0  0  0  0  0  0  0  0  0
   -1.9725    2.3580    0.1854 H   0  0  0  0  0  0  0  0  0  0  0  0
   -2.8331    1.3585   -2.9421 H   0  0  0  0  0  0  0  0  0  0  0  0
   -3.6938    2.8925   -2.6836 H   0  0  0  0  0  0  0  0  0  0  0  0
   -2.0443    2.6855   -2.0822 H   0  0  0  0  0  0  0  0  0  0  0  0
   -5.6373    1.6181   -1.5144 H   0  0  0  0  0  0  0  0  0  0  0  0
   -5.2891    0.5278   -0.1746 H   0  0  0  0  0  0  0  0  0  0  0  0
   -4.7806    0.0898   -1.8010 H   0  0  0  0  0  0  0  0  0  0  0  0
    5.6732   -0.3658    1.0758 H   0  0  0  0  0  0  0  0  0  0  0  0
    6.4547    1.1267    1.6417 H   0  0  0  0  0  0  0  0  0  0  0  0
    4.9777    0.5520    2.4490 H   0  0  0  0  0  0  0  0  0  0  0  0
  1 16  2  0  0  0  0
  2  3  1  0  0  0  0
  2  6  1  0  0  0  0
  2 20  1  0  0  0  0
  2 21  1  0  0  0  0
  3  7  1  0  0  0  0
  3 22  1  0  0  0  0
  3 23  1  0  0  0  0
  4  5  1  0  0  0  0
  4  8  1  0  0  0  0
  4 24  1  0  0  0  0
  4 25  1  0  0  0  0
  5  7  2  0  0  0  0
  5 11  1  0  0  0  0
  6  9  2  0  0  0  0
  6 12  1  0  0  0  0
  7 26  1  0  0  0  0
  8 14  1  0  0  0  0
  8 27  1  0  0  0  0
  8 28  1  0  0  0  0
  9 10  1  0  0  0  0
  9 29  1  0  0  0  0
 10 13  1  0  0  0  0
 10 30  1  0  0  0  0
 10 31  1  0  0  0  0
 11 32  1  0  0  0  0
 11 33  1  0  0  0  0
 11 34  1  0  0  0  0
 12 35  1  0  0  0  0
 12 36  1  0  0  0  0
 12 37  1  0  0  0  0
 13 16  1  0  0  0  0
 13 38  1  0  0  0  0
 13 39  1  0  0  0  0
 14 15  2  0  0  0  0
 14 40  1  0  0  0  0
 15 17  1  0  0  0  0
 15 18  1  0  0  0  0
 16 19  1  0  0  0  0
 17 41  1  0  0  0  0
 17 42  1  0  0  0  0
 17 43  1  0  0  0  0
 18 44  1  0  0  0  0
 18 45  1  0  0  0  0
 18 46  1  0  0  0  0
 19 47  1  0  0  0  0
 19 48  1  0  0  0  0
 19 49  1  0  0  0  0
M  END
>  <PUBCHEM_COMPOUND_CID>
1711945

>  <PUBCHEM_CONFORMER_RMSD>
1

>  <PUBCHEM_CONFORMER_DIVERSEORDER>
21
9
42
302
333
213
131
460
81
431
64
355
178
33
203
394
48
232
277
202
263
261
292
285
260
63
382
144
435
418
454
159
80
455
35
201
365
138
451
395
256
147
224
357
30
348
91
373
458
17
237
188
380
227
50
265
319
211
51
250
422
47
450
300
174
461
318
37
410
12
210
44
419
92
150
169
335
340
268
358
262
329
286
239
61
378
272
214
107
27
298
259
220
459
114
408
118
401
77
332
24
325
372
88
119
396
85
347
370
387
440
99
161
2
399
46
177
276
251
73
234
127
79
328
52
322
426
253
157
76
388
427
168
240
226
449
369
389
386
59
403
134
20
313
363
221
423
23
443
65
305
34
29
186
136
374
98
317
364
78
62
346
294
209
411
255
158
116
248
175
391
96
197
170
342
397
283
269
433
109
398
132
229
412
315
366
444
368
90
163
143
238
284
362
41
230
400
252
94
196
439
303
190
405
181
402
8
456
28
351
225
60
273
36
320
417
441
271
173
215
113
381
129
137
184
26
75
22
176
192
167
149
415
345
95
457
241
448
406
344
54
438
336
103
135
343
16
242
430
334
233
442
97
327
104
445
290
304
359
453
306
212
339
5
337
133
106
409
246
275
222
198
413
280
223
117
288
420
392
189
218
297
446
416
112
70
187
43
191
194
123
208
375
349
180
384
437
326
249
56
40
152
110
39
356
432
141
145
274
165
330
296
205
385
102
164
84
1
299
83
293
207
206
155
38
244
11
367
231
71
258
82
407
219
182
434
185
199
321
108
193
72
311
148
452
128
10
154
338
162
257
295
436
13
331
235
6
228
18
55
200
421
424
245
323
289
379
291
86
361
120
171
428
57
404
236
324
243
287
68
89
111
352
58
267
130
309
101
216
160
301
270
153
121
146
393
142
281
383
25
414
4
105
15
49
390
266
316
264
371
312
354
217
14
353
447
53
204
282
31
100
140
195
125
151
307
139
19
429
308
172
360
124
278
126
3
32
66
74
183
279
376
156
314
254
67
122
87
341
425
7
247
377
93
45
179
310
115
69
350
166

>  <PUBCHEM_MMFF94_PARTIAL_CHARGES>
22
1 -0.57
10 0.14
11 0.14
12 0.14
13 0.06
14 -0.29
15 -0.28
16 0.45
17 0.14
18 0.14
19 0.06
2 0.14
26 0.15
29 0.15
3 0.14
4 0.14
40 0.15
5 -0.28
6 -0.28
7 -0.29
8 0.14
9 -0.29

>  <PUBCHEM_EFFECTIVE_ROTOR_COUNT>
9

>  <PUBCHEM_PHARMACOPHORE_FEATURES>
6
1 1 acceptor
1 11 hydrophobe
1 12 hydrophobe
3 15 17 18 hydrophobe
4 2 3 6 7 hydrophobe
4 4 5 8 14 hydrophobe

>  <PUBCHEM_HEAVY_ATOM_COUNT>
19

>  <PUBCHEM_ATOM_DEF_STEREO_COUNT>
0

>  <PUBCHEM_ATOM_UDEF_STEREO_COUNT>
0

>  <PUBCHEM_BOND_DEF_STEREO_COUNT>
2

>  <PUBCHEM_BOND_UDEF_STEREO_COUNT>
0

>  <PUBCHEM_ISOTOPIC_ATOM_COUNT>
0

>  <PUBCHEM_COMPONENT_COUNT>
1

>  <PUBCHEM_CACTVS_TAUTO_COUNT>
3

>  <PUBCHEM_CONFORMER_ID>
001A1F490000002A

>  <PUBCHEM_MMFF94_ENERGY>
18.9305

>  <PUBCHEM_FEATURE_SELFOVERLAP>
30.472

>  <PUBCHEM_SHAPE_FINGERPRINT>
11045515 52 17123651923451087646
11725454 13 18188479190687652725
11954058 11 10950038015568529013
12596599 1 13912614861074531616
12633257 1 16515402971554265510
12892183 10 17750233772104898130
13103583 49 14490477460886348696
13134695 92 17692260638113797470
13583140 156 18333167280319834922
14123255 352 18411418444995469344
14251764 38 18267018366921715112
14957384 54 18335972143314883936
15295992 7 17827934931441732099
173720 79 15430331200665043625
1768 210 16987426698041229800
20429585 67 16987986323868895799
21033648 29 17678182598668739325
21095088 737 17775282768171854721
21304303 282 17240746382253124007
21591340 35 16093161626902376365
21639500 275 18055643815176440927
21864079 5 17487918729762708114
238 59 17846489305750048905
312425 83 14188759363018015784
3187 122 17971214735588690083
469060 322 18265899253559228383
484985 159 11170176666950153105
574716 61 16988564537587662221
9981440 41 18410566271675407803

>  <PUBCHEM_SHAPE_MULTIPOLES>
385.14
10.7
3.21
2.14
9.53
0.89
-0.24
-8.85
-1.75
0.3
0.59
-1.76
-0.2
2.36

>  <PUBCHEM_SHAPE_SELFOVERLAP>
727.059

>  <PUBCHEM_SHAPE_VOLUME>
238.9

>  <PUBCHEM_COORDINATE_TYPE>
2
5
10

$$$$
