7895
 OpenBabel05082101303D

 16 15  0  0  0  0  0  0  0  0999 V2000
    1.6727    0.7545    0.6356 O   0  0  0  0  0  0  0  0  0  0  0  0
   -1.5381    0.6568    0.0510 C   0  0  0  0  0  0  0  0  0  0  0  0
   -0.2714    0.6650   -0.7997 C   0  0  0  0  0  0  0  0  0  0  0  0
   -1.9421   -0.7571    0.4354 C   0  0  0  0  0  0  0  0  0  0  0  0
    0.9242    0.0792   -0.0693 C   0  0  0  0  0  0  0  0  0  0  0  0
    1.1547   -1.3985   -0.2530 C   0  0  0  0  0  0  0  0  0  0  0  0
   -0.4233    0.1310   -1.7441 H   0  0  0  0  0  0  0  0  0  0  0  0
   -0.0176    1.6970   -1.0700 H   0  0  0  0  0  0  0  0  0  0  0  0
   -1.3879    1.2494    0.9607 H   0  0  0  0  0  0  0  0  0  0  0  0
   -2.3508    1.1258   -0.5150 H   0  0  0  0  0  0  0  0  0  0  0  0
   -1.2550   -1.1909    1.1666 H   0  0  0  0  0  0  0  0  0  0  0  0
   -1.9935   -1.4125   -0.4396 H   0  0  0  0  0  0  0  0  0  0  0  0
   -2.9340   -0.7433    0.8998 H   0  0  0  0  0  0  0  0  0  0  0  0
    0.5373   -1.8009   -1.0596 H   0  0  0  0  0  0  0  0  0  0  0  0
    0.9230   -1.9243    0.6759 H   0  0  0  0  0  0  0  0  0  0  0  0
    2.2031   -1.5631   -0.5170 H   0  0  0  0  0  0  0  0  0  0  0  0
  1  5  2  0  0  0  0
  2  3  1  0  0  0  0
  2  4  1  0  0  0  0
  2  9  1  0  0  0  0
  2 10  1  0  0  0  0
  3  5  1  0  0  0  0
  3  7  1  0  0  0  0
  3  8  1  0  0  0  0
  4 11  1  0  0  0  0
  4 12  1  0  0  0  0
  4 13  1  0  0  0  0
  5  6  1  0  0  0  0
  6 14  1  0  0  0  0
  6 15  1  0  0  0  0
  6 16  1  0  0  0  0
M  END
>  <PUBCHEM_COMPOUND_CID>
7895

>  <PUBCHEM_CONFORMER_RMSD>
0.4

>  <PUBCHEM_CONFORMER_DIVERSEORDER>
1
13
10
11
5
9
2
12
4
8
6
3
7

>  <PUBCHEM_MMFF94_PARTIAL_CHARGES>
4
1 -0.57
3 0.06
5 0.45
6 0.06

>  <PUBCHEM_EFFECTIVE_ROTOR_COUNT>
2

>  <PUBCHEM_PHARMACOPHORE_FEATURES>
2
1 1 acceptor
1 4 hydrophobe

>  <PUBCHEM_HEAVY_ATOM_COUNT>
6

>  <PUBCHEM_ATOM_DEF_STEREO_COUNT>
0

>  <PUBCHEM_ATOM_UDEF_STEREO_COUNT>
0

>  <PUBCHEM_BOND_DEF_STEREO_COUNT>
0

>  <PUBCHEM_BOND_UDEF_STEREO_COUNT>
0

>  <PUBCHEM_ISOTOPIC_ATOM_COUNT>
0

>  <PUBCHEM_COMPONENT_COUNT>
1

>  <PUBCHEM_CACTVS_TAUTO_COUNT>
3

>  <PUBCHEM_CONFORMER_ID>
00001ED70000000A

>  <PUBCHEM_MMFF94_ENERGY>
3.0334

>  <PUBCHEM_FEATURE_SELFOVERLAP>
10.148

>  <PUBCHEM_SHAPE_FINGERPRINT>
139733 1 12103847834779439765
20096714 4 16200146642299048552
21040471 1 18338803419498856390
24536 1 18186803569305620037
29004967 10 18409169917461398113
5943 1 9395974347362278804

>  <PUBCHEM_SHAPE_MULTIPOLES>
117.61
2.42
1.27
0.8
0.56
0.32
-0.04
0.33
0.42
-0.16
-0.04
-0.06
-0.09
0.32

>  <PUBCHEM_SHAPE_SELFOVERLAP>
206.367

>  <PUBCHEM_SHAPE_VOLUME>
77.9

>  <PUBCHEM_COORDINATE_TYPE>
2
5
10

$$$$
