77932
 OpenBabel05082101303D

 22 21  0  0  0  0  0  0  0  0999 V2000
   -0.6889   -0.6777   -0.3421 S   0  0  0  0  0  0  0  0  0  0  0  0
    0.6992    0.6777    0.3307 S   0  0  0  0  0  0  0  0  0  0  0  0
   -2.2302    0.0190    0.3419 C   0  0  0  0  0  0  0  0  0  0  0  0
    2.2352   -0.0020   -0.3413 C   0  0  0  0  0  0  0  0  0  0  0  0
   -2.4460    1.4248   -0.2056 C   0  0  0  0  0  0  0  0  0  0  0  0
   -3.4018   -0.8953    0.0046 C   0  0  0  0  0  0  0  0  0  0  0  0
    3.4082    0.8847    0.0591 C   0  0  0  0  0  0  0  0  0  0  0  0
    2.4243   -1.4312    0.1526 C   0  0  0  0  0  0  0  0  0  0  0  0
   -2.1363    0.0611    1.4331 H   0  0  0  0  0  0  0  0  0  0  0  0
    2.1684   -0.0008   -1.4353 H   0  0  0  0  0  0  0  0  0  0  0  0
   -3.4215    1.8060    0.1194 H   0  0  0  0  0  0  0  0  0  0  0  0
   -1.7055    2.1430    0.1575 H   0  0  0  0  0  0  0  0  0  0  0  0
   -2.4435    1.4437   -1.3016 H   0  0  0  0  0  0  0  0  0  0  0  0
   -4.3293   -0.5031    0.4364 H   0  0  0  0  0  0  0  0  0  0  0  0
   -3.2529   -1.9014    0.4124 H   0  0  0  0  0  0  0  0  0  0  0  0
   -3.5529   -0.9812   -1.0775 H   0  0  0  0  0  0  0  0  0  0  0  0
    4.3410    0.5001   -0.3683 H   0  0  0  0  0  0  0  0  0  0  0  0
    3.2798    1.9084   -0.3101 H   0  0  0  0  0  0  0  0  0  0  0  0
    3.5369    0.9243    1.1469 H   0  0  0  0  0  0  0  0  0  0  0  0
    3.4115   -1.8015   -0.1496 H   0  0  0  0  0  0  0  0  0  0  0  0
    1.7004   -2.1314   -0.2737 H   0  0  0  0  0  0  0  0  0  0  0  0
    2.3789   -1.5002    1.2457 H   0  0  0  0  0  0  0  0  0  0  0  0
  1  2  1  0  0  0  0
  1  3  1  0  0  0  0
  2  4  1  0  0  0  0
  3  5  1  0  0  0  0
  3  6  1  0  0  0  0
  3  9  1  0  0  0  0
  4  7  1  0  0  0  0
  4  8  1  0  0  0  0
  4 10  1  0  0  0  0
  5 11  1  0  0  0  0
  5 12  1  0  0  0  0
  5 13  1  0  0  0  0
  6 14  1  0  0  0  0
  6 15  1  0  0  0  0
  6 16  1  0  0  0  0
  7 17  1  0  0  0  0
  7 18  1  0  0  0  0
  7 19  1  0  0  0  0
  8 20  1  0  0  0  0
  8 21  1  0  0  0  0
  8 22  1  0  0  0  0
M  END
>  <PUBCHEM_COMPOUND_CID>
77932

>  <PUBCHEM_CONFORMER_RMSD>
0.6

>  <PUBCHEM_CONFORMER_DIVERSEORDER>
1
8
13
6
14
7
12
9
11
10
5
2
4
3

>  <PUBCHEM_MMFF94_PARTIAL_CHARGES>
4
1 -0.23
2 -0.23
3 0.23
4 0.23

>  <PUBCHEM_EFFECTIVE_ROTOR_COUNT>
3

>  <PUBCHEM_PHARMACOPHORE_FEATURES>
3
3 3 5 6 hydrophobe
3 4 7 8 hydrophobe
4 1 2 3 4 hydrophobe

>  <PUBCHEM_HEAVY_ATOM_COUNT>
8

>  <PUBCHEM_ATOM_DEF_STEREO_COUNT>
0

>  <PUBCHEM_ATOM_UDEF_STEREO_COUNT>
0

>  <PUBCHEM_BOND_DEF_STEREO_COUNT>
0

>  <PUBCHEM_BOND_UDEF_STEREO_COUNT>
0

>  <PUBCHEM_ISOTOPIC_ATOM_COUNT>
0

>  <PUBCHEM_COMPONENT_COUNT>
1

>  <PUBCHEM_CACTVS_TAUTO_COUNT>
1

>  <PUBCHEM_CONFORMER_ID>
0001306C0000000D

>  <PUBCHEM_MMFF94_ENERGY>
11.1439

>  <PUBCHEM_FEATURE_SELFOVERLAP>
15.237

>  <PUBCHEM_SHAPE_FINGERPRINT>
11062470 55 10231763283593836435
12932764 1 17632286895638609028
14325111 11 18410856538191346349
14390081 3 18410292505885203864
15310529 11 18412260640367868375
15775835 57 18272092711989260431
170605 34 18336265725725131090
18342897 69 18059853982822660971
20201158 50 18335140924871084410
20651381 32 18341325587493249364
20711983 171 18411985719606405045
21293036 1 17775007924661637204
23552333 60 18342739581559729002
23552423 10 18261112920012504770
3248919 1 17167871867205438738

>  <PUBCHEM_SHAPE_MULTIPOLES>
172.34
6.15
1.44
0.71
0.01
0.01
0
-0.02
0.05
0.01
-0.01
0.01
0
0.04

>  <PUBCHEM_SHAPE_SELFOVERLAP>
280.059

>  <PUBCHEM_SHAPE_VOLUME>
122.6

>  <PUBCHEM_COORDINATE_TYPE>
2
5
10

$$$$
